==============================================================================
                AMR-Wind (https://github.com/exawind/amr-wind)

  AMR-Wind version :: 87eabfe
  AMR-Wind Git SHA :: 87eabfed02750231c0277d00de233ce149ad004f
  AMReX version    :: 21.05-20-gfb0c16e34b93

  Exec. time       :: Thu Jun 17 11:21:50 2021
  Build time       :: Jun 16 2021 16:48:07
  C++ compiler     :: GNU 7.2.0

  MPI              :: ON    (Num. ranks = 256)
  GPU              :: OFF
  OpenMP           :: OFF

  Enabled third-party libraries: 
    NetCDF    4.7.3
    OpenFAST  

           This software is released under the BSD 3-clause license.           
 See https://github.com/Exawind/amr-wind/blob/development/LICENSE for details. 
------------------------------------------------------------------------------

MPI initialized with 256 MPI processes
MPI initialized with thread support level 0
AMReX (21.05-20-gfb0c16e34b93) initialized
Initializing AMR-Wind ...
Initializing boundary conditions for velocity_mueff
Initializing boundary conditions for velocity
Initializing boundary conditions for density
Initializing boundary conditions for p
Initializing boundary conditions for velocity_src_term
Initializing boundary conditions for gp
Creating PDESystem instance: ICNS-Godunov
ABLWallFunction: log_law_height not specified for ABL physics. Assuming log_law_height = first cell height
Initializing boundary conditions for temperature_mueff
Initializing boundary conditions for temperature
Initializing boundary conditions for temperature_src_term
Creating PDESystem instance: Temperature-Godunov
Creating ABLStatsBase instance: precursor
Creating Physics instance: ABL
Initializing boundary conditions for mu_turb
Initializing boundary conditions for tke_mueff
Initializing boundary conditions for tke
Initializing boundary conditions for tke_src_term
Creating PDESystem instance: TKE-Godunov
Creating TurbulenceModel instance: OneEqKsgsM84-ConstTransport
Creating PostProcessBase instance: Sampling
Initializing I/O manager
Restarting from checkpoint chk30000
Making new level 0 from scratch
with BoxArray (BoxArray maxbox(320)
       m_ref->m_hash_sig(0)
       ((0,0,0) (31,15,15) (0,0,0)) ((0,16,0) (31,31,15) (0,0,0)) ((0,0,16) (31,15,31) (0,0,0)) ((0,16,16) (31,31,31) (0,0,0)) ((32,0,0) (63,15,15) (0,0,0)) ((32,16,0) (63,31,15) (0,0,0)) ((32,0,16) (63,15,31) (0,0,0)) ((32,16,16) (63,31,31) (0,0,0)) ((64,0,0) (95,15,15) (0,0,0)) ((64,16,0) (95,31,15) (0,0,0)) ((64,0,16) (95,15,31) (0,0,0)) ((64,16,16) (95,31,31) (0,0,0)) ((96,0,0) (127,15,15) (0,0,0)) ((96,16,0) (127,31,15) (0,0,0)) ((96,0,16) (127,15,31) (0,0,0)) ((96,16,16) (127,31,31) (0,0,0)) ((0,32,0) (31,47,15) (0,0,0)) ((0,48,0) (31,63,15) (0,0,0)) ((0,32,16) (31,47,31) (0,0,0)) ((0,48,16) (31,63,31) (0,0,0)) ((32,32,0) (63,47,15) (0,0,0)) ((32,48,0) (63,63,15) (0,0,0)) ((32,32,16) (63,47,31) (0,0,0)) ((32,48,16) (63,63,31) (0,0,0)) ((64,32,0) (95,47,15) (0,0,0)) ((64,48,0) (95,63,15) (0,0,0)) ((64,32,16) (95,47,31) (0,0,0)) ((64,48,16) (95,63,31) (0,0,0)) ((96,32,0) (127,47,15) (0,0,0)) ((96,48,0) (127,63,15) (0,0,0)) ((96,32,16) (127,47,31) (0,0,0)) ((96,48,16) (127,63,31) (0,0,0)) ((0,64,0) (31,79,15) (0,0,0)) ((0,80,0) (31,95,15) (0,0,0)) ((0,64,16) (31,79,31) (0,0,0)) ((0,80,16) (31,95,31) (0,0,0)) ((32,64,0) (63,79,15) (0,0,0)) ((32,80,0) (63,95,15) (0,0,0)) ((32,64,16) (63,79,31) (0,0,0)) ((32,80,16) (63,95,31) (0,0,0)) ((64,64,0) (95,79,15) (0,0,0)) ((64,80,0) (95,95,15) (0,0,0)) ((64,64,16) (95,79,31) (0,0,0)) ((64,80,16) (95,95,31) (0,0,0)) ((96,64,0) (127,79,15) (0,0,0)) ((96,80,0) (127,95,15) (0,0,0)) ((96,64,16) (127,79,31) (0,0,0)) ((96,80,16) (127,95,31) (0,0,0)) ((0,96,0) (31,111,15) (0,0,0)) ((0,112,0) (31,127,15) (0,0,0)) ((0,96,16) (31,111,31) (0,0,0)) ((0,112,16) (31,127,31) (0,0,0)) ((32,96,0) (63,111,15) (0,0,0)) ((32,112,0) (63,127,15) (0,0,0)) ((32,96,16) (63,111,31) (0,0,0)) ((32,112,16) (63,127,31) (0,0,0)) ((64,96,0) (95,111,15) (0,0,0)) ((64,112,0) (95,127,15) (0,0,0)) ((64,96,16) (95,111,31) (0,0,0)) ((64,112,16) (95,127,31) (0,0,0)) ((96,96,0) (127,111,15) (0,0,0)) ((96,112,0) (127,127,15) (0,0,0)) ((96,96,16) (127,111,31) (0,0,0)) ((96,112,16) (127,127,31) (0,0,0)) ((0,0,32) (31,15,47) (0,0,0)) ((0,16,32) (31,31,47) (0,0,0)) ((0,0,48) (31,15,63) (0,0,0)) ((0,16,48) (31,31,63) (0,0,0)) ((32,0,32) (63,15,47) (0,0,0)) ((32,16,32) (63,31,47) (0,0,0)) ((32,0,48) (63,15,63) (0,0,0)) ((32,16,48) (63,31,63) (0,0,0)) ((64,0,32) (95,15,47) (0,0,0)) ((64,16,32) (95,31,47) (0,0,0)) ((64,0,48) (95,15,63) (0,0,0)) ((64,16,48) (95,31,63) (0,0,0)) ((96,0,32) (127,15,47) (0,0,0)) ((96,16,32) (127,31,47) (0,0,0)) ((96,0,48) (127,15,63) (0,0,0)) ((96,16,48) (127,31,63) (0,0,0)) ((0,32,32) (31,47,47) (0,0,0)) ((0,48,32) (31,63,47) (0,0,0)) ((0,32,48) (31,47,63) (0,0,0)) ((0,48,48) (31,63,63) (0,0,0)) ((32,32,32) (63,47,47) (0,0,0)) ((32,48,32) (63,63,47) (0,0,0)) ((32,32,48) (63,47,63) (0,0,0)) ((32,48,48) (63,63,63) (0,0,0)) ((64,32,32) (95,47,47) (0,0,0)) ((64,48,32) (95,63,47) (0,0,0)) ((64,32,48) (95,47,63) (0,0,0)) ((64,48,48) (95,63,63) (0,0,0)) ((96,32,32) (127,47,47) (0,0,0)) ((96,48,32) (127,63,47) (0,0,0)) ((96,32,48) (127,47,63) (0,0,0)) ((96,48,48) (127,63,63) (0,0,0)) ((0,64,32) (31,79,47) (0,0,0)) ((0,80,32) (31,95,47) (0,0,0)) ((0,64,48) (31,79,63) (0,0,0)) ((0,80,48) (31,95,63) (0,0,0)) ((32,64,32) (63,79,47) (0,0,0)) ((32,80,32) (63,95,47) (0,0,0)) ((32,64,48) (63,79,63) (0,0,0)) ((32,80,48) (63,95,63) (0,0,0)) ((64,64,32) (95,79,47) (0,0,0)) ((64,80,32) (95,95,47) (0,0,0)) ((64,64,48) (95,79,63) (0,0,0)) ((64,80,48) (95,95,63) (0,0,0)) ((96,64,32) (127,79,47) (0,0,0)) ((96,80,32) (127,95,47) (0,0,0)) ((96,64,48) (127,79,63) (0,0,0)) ((96,80,48) (127,95,63) (0,0,0)) ((0,96,32) (31,111,47) (0,0,0)) ((0,112,32) (31,127,47) (0,0,0)) ((0,96,48) (31,111,63) (0,0,0)) ((0,112,48) (31,127,63) (0,0,0)) ((32,96,32) (63,111,47) (0,0,0)) ((32,112,32) (63,127,47) (0,0,0)) ((32,96,48) (63,111,63) (0,0,0)) ((32,112,48) (63,127,63) (0,0,0)) ((64,96,32) (95,111,47) (0,0,0)) ((64,112,32) (95,127,47) (0,0,0)) ((64,96,48) (95,111,63) (0,0,0)) ((64,112,48) (95,127,63) (0,0,0)) ((96,96,32) (127,111,47) (0,0,0)) ((96,112,32) (127,127,47) (0,0,0)) ((96,96,48) (127,111,63) (0,0,0)) ((96,112,48) (127,127,63) (0,0,0)) ((0,0,64) (31,15,79) (0,0,0)) ((0,16,64) (31,31,79) (0,0,0)) ((0,0,80) (31,15,95) (0,0,0)) ((0,16,80) (31,31,95) (0,0,0)) ((32,0,64) (63,15,79) (0,0,0)) ((32,16,64) (63,31,79) (0,0,0)) ((32,0,80) (63,15,95) (0,0,0)) ((32,16,80) (63,31,95) (0,0,0)) ((64,0,64) (95,15,79) (0,0,0)) ((64,16,64) (95,31,79) (0,0,0)) ((64,0,80) (95,15,95) (0,0,0)) ((64,16,80) (95,31,95) (0,0,0)) ((96,0,64) (127,15,79) (0,0,0)) ((96,16,64) (127,31,79) (0,0,0)) ((96,0,80) (127,15,95) (0,0,0)) ((96,16,80) (127,31,95) (0,0,0)) ((0,32,64) (31,47,79) (0,0,0)) ((0,48,64) (31,63,79) (0,0,0)) ((0,32,80) (31,47,95) (0,0,0)) ((0,48,80) (31,63,95) (0,0,0)) ((32,32,64) (63,47,79) (0,0,0)) ((32,48,64) (63,63,79) (0,0,0)) ((32,32,80) (63,47,95) (0,0,0)) ((32,48,80) (63,63,95) (0,0,0)) ((64,32,64) (95,47,79) (0,0,0)) ((64,48,64) (95,63,79) (0,0,0)) ((64,32,80) (95,47,95) (0,0,0)) ((64,48,80) (95,63,95) (0,0,0)) ((96,32,64) (127,47,79) (0,0,0)) ((96,48,64) (127,63,79) (0,0,0)) ((96,32,80) (127,47,95) (0,0,0)) ((96,48,80) (127,63,95) (0,0,0)) ((0,64,64) (31,79,79) (0,0,0)) ((0,80,64) (31,95,79) (0,0,0)) ((0,64,80) (31,79,95) (0,0,0)) ((0,80,80) (31,95,95) (0,0,0)) ((32,64,64) (63,79,79) (0,0,0)) ((32,80,64) (63,95,79) (0,0,0)) ((32,64,80) (63,79,95) (0,0,0)) ((32,80,80) (63,95,95) (0,0,0)) ((64,64,64) (95,79,79) (0,0,0)) ((64,80,64) (95,95,79) (0,0,0)) ((64,64,80) (95,79,95) (0,0,0)) ((64,80,80) (95,95,95) (0,0,0)) ((96,64,64) (127,79,79) (0,0,0)) ((96,80,64) (127,95,79) (0,0,0)) ((96,64,80) (127,79,95) (0,0,0)) ((96,80,80) (127,95,95) (0,0,0)) ((0,96,64) (31,111,79) (0,0,0)) ((0,112,64) (31,127,79) (0,0,0)) ((0,96,80) (31,111,95) (0,0,0)) ((0,112,80) (31,127,95) (0,0,0)) ((32,96,64) (63,111,79) (0,0,0)) ((32,112,64) (63,127,79) (0,0,0)) ((32,96,80) (63,111,95) (0,0,0)) ((32,112,80) (63,127,95) (0,0,0)) ((64,96,64) (95,111,79) (0,0,0)) ((64,112,64) (95,127,79) (0,0,0)) ((64,96,80) (95,111,95) (0,0,0)) ((64,112,80) (95,127,95) (0,0,0)) ((96,96,64) (127,111,79) (0,0,0)) ((96,112,64) (127,127,79) (0,0,0)) ((96,96,80) (127,111,95) (0,0,0)) ((96,112,80) (127,127,95) (0,0,0)) ((0,0,96) (31,15,111) (0,0,0)) ((0,16,96) (31,31,111) (0,0,0)) ((0,0,112) (31,15,127) (0,0,0)) ((0,16,112) (31,31,127) (0,0,0)) ((32,0,96) (63,15,111) (0,0,0)) ((32,16,96) (63,31,111) (0,0,0)) ((32,0,112) (63,15,127) (0,0,0)) ((32,16,112) (63,31,127) (0,0,0)) ((64,0,96) (95,15,111) (0,0,0)) ((64,16,96) (95,31,111) (0,0,0)) ((64,0,112) (95,15,127) (0,0,0)) ((64,16,112) (95,31,127) (0,0,0)) ((96,0,96) (127,15,111) (0,0,0)) ((96,16,96) (127,31,111) (0,0,0)) ((96,0,112) (127,15,127) (0,0,0)) ((96,16,112) (127,31,127) (0,0,0)) ((0,32,96) (31,47,111) (0,0,0)) ((0,48,96) (31,63,111) (0,0,0)) ((0,32,112) (31,47,127) (0,0,0)) ((0,48,112) (31,63,127) (0,0,0)) ((32,32,96) (63,47,111) (0,0,0)) ((32,48,96) (63,63,111) (0,0,0)) ((32,32,112) (63,47,127) (0,0,0)) ((32,48,112) (63,63,127) (0,0,0)) ((64,32,96) (95,47,111) (0,0,0)) ((64,48,96) (95,63,111) (0,0,0)) ((64,32,112) (95,47,127) (0,0,0)) ((64,48,112) (95,63,127) (0,0,0)) ((96,32,96) (127,47,111) (0,0,0)) ((96,48,96) (127,63,111) (0,0,0)) ((96,32,112) (127,47,127) (0,0,0)) ((96,48,112) (127,63,127) (0,0,0)) ((0,64,96) (31,79,111) (0,0,0)) ((0,80,96) (31,95,111) (0,0,0)) ((0,64,112) (31,79,127) (0,0,0)) ((0,80,112) (31,95,127) (0,0,0)) ((32,64,96) (63,79,111) (0,0,0)) ((32,80,96) (63,95,111) (0,0,0)) ((32,64,112) (63,79,127) (0,0,0)) ((32,80,112) (63,95,127) (0,0,0)) ((64,64,96) (95,79,111) (0,0,0)) ((64,80,96) (95,95,111) (0,0,0)) ((64,64,112) (95,79,127) (0,0,0)) ((64,80,112) (95,95,127) (0,0,0)) ((96,64,96) (127,79,111) (0,0,0)) ((96,80,96) (127,95,111) (0,0,0)) ((96,64,112) (127,79,127) (0,0,0)) ((96,80,112) (127,95,127) (0,0,0)) ((0,96,96) (31,111,111) (0,0,0)) ((0,112,96) (31,127,111) (0,0,0)) ((0,96,112) (31,111,127) (0,0,0)) ((0,112,112) (31,127,127) (0,0,0)) ((32,96,96) (63,111,111) (0,0,0)) ((32,112,96) (63,127,111) (0,0,0)) ((32,96,112) (63,111,127) (0,0,0)) ((32,112,112) (63,127,127) (0,0,0)) ((64,96,96) (95,111,111) (0,0,0)) ((64,112,96) (95,127,111) (0,0,0)) ((64,96,112) (95,111,127) (0,0,0)) ((64,112,112) (95,127,127) (0,0,0)) ((96,96,96) (127,111,111) (0,0,0)) ((96,112,96) (127,127,111) (0,0,0)) ((96,96,112) (127,111,127) (0,0,0)) ((96,112,112) (127,127,127) (0,0,0)) ((0,0,128) (31,15,143) (0,0,0)) ((0,16,128) (31,31,143) (0,0,0)) ((0,0,144) (31,15,159) (0,0,0)) ((0,16,144) (31,31,159) (0,0,0)) ((32,0,128) (63,15,143) (0,0,0)) ((32,16,128) (63,31,143) (0,0,0)) ((32,0,144) (63,15,159) (0,0,0)) ((32,16,144) (63,31,159) (0,0,0)) ((64,0,128) (95,15,143) (0,0,0)) ((64,16,128) (95,31,143) (0,0,0)) ((64,0,144) (95,15,159) (0,0,0)) ((64,16,144) (95,31,159) (0,0,0)) ((96,0,128) (127,15,143) (0,0,0)) ((96,16,128) (127,31,143) (0,0,0)) ((96,0,144) (127,15,159) (0,0,0)) ((96,16,144) (127,31,159) (0,0,0)) ((0,32,128) (31,47,143) (0,0,0)) ((0,48,128) (31,63,143) (0,0,0)) ((0,32,144) (31,47,159) (0,0,0)) ((0,48,144) (31,63,159) (0,0,0)) ((32,32,128) (63,47,143) (0,0,0)) ((32,48,128) (63,63,143) (0,0,0)) ((32,32,144) (63,47,159) (0,0,0)) ((32,48,144) (63,63,159) (0,0,0)) ((64,32,128) (95,47,143) (0,0,0)) ((64,48,128) (95,63,143) (0,0,0)) ((64,32,144) (95,47,159) (0,0,0)) ((64,48,144) (95,63,159) (0,0,0)) ((96,32,128) (127,47,143) (0,0,0)) ((96,48,128) (127,63,143) (0,0,0)) ((96,32,144) (127,47,159) (0,0,0)) ((96,48,144) (127,63,159) (0,0,0)) ((0,64,128) (31,79,143) (0,0,0)) ((0,80,128) (31,95,143) (0,0,0)) ((0,64,144) (31,79,159) (0,0,0)) ((0,80,144) (31,95,159) (0,0,0)) ((32,64,128) (63,79,143) (0,0,0)) ((32,80,128) (63,95,143) (0,0,0)) ((32,64,144) (63,79,159) (0,0,0)) ((32,80,144) (63,95,159) (0,0,0)) ((64,64,128) (95,79,143) (0,0,0)) ((64,80,128) (95,95,143) (0,0,0)) ((64,64,144) (95,79,159) (0,0,0)) ((64,80,144) (95,95,159) (0,0,0)) ((96,64,128) (127,79,143) (0,0,0)) ((96,80,128) (127,95,143) (0,0,0)) ((96,64,144) (127,79,159) (0,0,0)) ((96,80,144) (127,95,159) (0,0,0)) ((0,96,128) (31,111,143) (0,0,0)) ((0,112,128) (31,127,143) (0,0,0)) ((0,96,144) (31,111,159) (0,0,0)) ((0,112,144) (31,127,159) (0,0,0)) ((32,96,128) (63,111,143) (0,0,0)) ((32,112,128) (63,127,143) (0,0,0)) ((32,96,144) (63,111,159) (0,0,0)) ((32,112,144) (63,127,159) (0,0,0)) ((64,96,128) (95,111,143) (0,0,0)) ((64,112,128) (95,127,143) (0,0,0)) ((64,96,144) (95,111,159) (0,0,0)) ((64,112,144) (95,127,159) (0,0,0)) ((96,96,128) (127,111,143) (0,0,0)) ((96,112,128) (127,127,143) (0,0,0)) ((96,96,144) (127,111,159) (0,0,0)) ((96,112,144) (127,127,159) (0,0,0)) )

Grid summary: 
  Level 0   320 grids  2621440 cells  100 % of domain
            smallest grid: 32 x 16 x 16  biggest grid: 32 x 16 x 16

Shear Stress model: moeng
Heat Flux model: moeng
Reading input NetCDF file: ../baseprecursor/bndry_file.nc
NetCDF file read successfully: ../baseprecursor/bndry_file.nc
Creating MomentumSource instance: BoussinesqBuoyancy
Creating MomentumSource instance: CoriolisForcing
Creating MomentumSource instance: ABLForcing
Creating MomentumSource instance: ABLMeanBoussinesq
Creating TKESource instance: KsgsM84Src
Creating SamplerBase instance: PlaneSampler
Creating SamplerBase instance: PlaneSampler
Creating SamplerBase instance: PlaneSampler
Initialization successful. Time elapsed = 9.42218626

Begin simulation: 
  Run until 15500 sec. or 40000 timesteps
  Fixed timestepping with dt = 0.5; max. CFL from inputs = 0.95

==============================================================================
Step: 30001 dt: 0.5 Time: 15000 to 15000.5
CFL: 0.320371 (conv: 0.320371 diff: 0 src: 0 )

L-inf norm summary: before predictor step
..............................................................................
Level 0
  velocity                 7.688913024         1.621558981         2.175699464
  gp                     0.03731426284       0.05266411027        0.2982391573
  temperature              296.8951083
  tke                     0.7331341067
..............................................................................


Godunov:
  System                     Iters      Initial residual        Final residual
  ----------------------------------------------------------------------------
  MAC_projection                 6          0.0424920674       6.291636951e-09
  temperature_solve              2        0.001208982353       2.372075869e-10
  tke_solve                      2        0.004706126047       1.198476318e-09
  velocity_solve                 1        0.005421092352       5.055588291e-06

L-inf norm summary: before projection
..............................................................................
Level 0
  velocity                 7.685746015         1.627747336         2.161111665
  gp                     0.03731426284       0.05266411027        0.2982391573
  temperature              296.8951068
  tke                     0.7315482244
..............................................................................

  Nodal_projection             200         0.02569029027         0.03170974172

L-inf norm summary: after projection
..............................................................................
Level 0
  velocity                 7.686223676         1.627851326         2.164200795
  gp                      0.1758669323        0.2125507449        0.1419430388
  temperature              296.8951068
  tke                     0.7315482244
..............................................................................



L-inf norm summary: end of timestep
..............................................................................
Level 0
  velocity                 7.686223676         1.627851326         2.164200795
  gp                      0.1758669323        0.2125507449        0.1419430388
  temperature              296.8951068
  tke                     0.7315482244
..............................................................................

WallClockTime: 30001 Pre: 0.805 Solve: 2.98 Post: 1.12 Total: 4.901
Solve time per cell: 0.000291

==============================================================================
Step: 30002 dt: 0.5 Time: 15000.5 to 15001
CFL: 0.338578 (conv: 0.320259 diff: 0 src: 0.0787546 )

L-inf norm summary: before predictor step
..............................................................................
Level 0
  velocity                 7.686223676         1.627851326         2.164200795
  gp                      0.1758669323        0.2125507449        0.1419430388
  temperature              296.8951068
  tke                     0.7315482244
..............................................................................


Godunov:
  System                     Iters      Initial residual        Final residual
  ----------------------------------------------------------------------------
  MAC_projection                 4         0.03730271982       2.928152402e-08
  temperature_solve              2        0.001196759364       2.362412488e-10
  tke_solve                      2        0.004677110364       1.206825417e-09
  velocity_solve                 1        0.005437436257       5.143904736e-06

L-inf norm summary: before projection
..............................................................................
Level 0
  velocity                 7.681656032         1.631221427         2.169780892
  gp                      0.1758669323        0.2125507449        0.1419430388
  temperature              296.8951059
  tke                     0.7342088469
..............................................................................

  Nodal_projection             200          0.0234605821         0.03364488803

L-inf norm summary: after projection
..............................................................................
Level 0
  velocity                 7.681795639         1.631363357         2.170543784
  gp                     0.05812893377        0.1609036183        0.0533974475
  temperature              296.8951059
  tke                     0.7342088469
..............................................................................



L-inf norm summary: end of timestep
..............................................................................
Level 0
  velocity                 7.681795639         1.631363357         2.170543784
  gp                     0.05812893377        0.1609036183        0.0533974475
  temperature              296.8951059
  tke                     0.7342088469
..............................................................................

WallClockTime: 30002 Pre: 1.51 Solve: 2.712 Post: 0.0262 Total: 4.249
Solve time per cell: 0.0002648

==============================================================================
Step: 30003 dt: 0.5 Time: 15001 to 15001.5
CFL: 0.333356 (conv: 0.320075 diff: 0 src: 0.0665373 )

L-inf norm summary: before predictor step
..............................................................................
Level 0
  velocity                 7.681795639         1.631363357         2.170543784
  gp                     0.05812893377        0.1609036183        0.0533974475
  temperature              296.8951059
  tke                     0.7342088469
..............................................................................


Godunov:
  System                     Iters      Initial residual        Final residual
  ----------------------------------------------------------------------------
  MAC_projection                 4         0.03757588152       2.050691077e-08
  temperature_solve              2        0.001127732694       2.407318789e-10
  tke_solve                      2        0.004570754951       1.196895916e-09
  velocity_solve                 1        0.005430678942       5.072704246e-06

L-inf norm summary: before projection
..............................................................................
Level 0
  velocity                 7.681077717         1.635226978         2.179218538
  gp                     0.05812893377        0.1609036183        0.0533974475
  temperature              296.8951059
  tke                     0.7346240259
..............................................................................

  Nodal_projection             200         0.02578130797         0.03503976214

L-inf norm summary: after projection
..............................................................................
Level 0
  velocity                 7.681810781         1.635318124         2.179696199
  gp                     0.07021467711        0.1688664937       0.05727083706
  temperature              296.8951059
  tke                     0.7346240259
..............................................................................



L-inf norm summary: end of timestep
..............................................................................
Level 0
  velocity                 7.681810781         1.635318124         2.179696199
  gp                     0.07021467711        0.1688664937       0.05727083706
  temperature              296.8951059
  tke                     0.7346240259
..............................................................................

WallClockTime: 30003 Pre: 0.967 Solve: 2.678 Post: 0.0269 Total: 3.672
Solve time per cell: 0.0002615

==============================================================================
Step: 30004 dt: 0.5 Time: 15001.5 to 15002
CFL: 0.330223 (conv: 0.320075 diff: 0 src: 0.0578875 )

L-inf norm summary: before predictor step
..............................................................................
Level 0
  velocity                 7.681810781         1.635318124         2.179696199
  gp                     0.07021467711        0.1688664937       0.05727083706
  temperature              296.8951059
  tke                     0.7346240259
..............................................................................


Godunov:
  System                     Iters      Initial residual        Final residual
  ----------------------------------------------------------------------------
  MAC_projection                 4         0.03762014807       1.979997502e-08
  temperature_solve              2         0.00117467233       2.472120286e-10
  tke_solve                      2        0.004582759857       1.167405395e-09
  velocity_solve                 1        0.005397751047         4.9502673e-06

L-inf norm summary: before projection
..............................................................................
Level 0
  velocity                 7.680356117         1.639368508         2.177091731
  gp                     0.07021467711        0.1688664937       0.05727083706
  temperature              296.8951051
  tke                     0.7325251006
..............................................................................

  Nodal_projection             200         0.02676232875         0.03576150295

L-inf norm summary: after projection
..............................................................................
Level 0
  velocity                 7.680960979         1.639566615         2.177517378
  gp                      0.0765531091         0.171116365       0.05815309077
  temperature              296.8951051
  tke                     0.7325251006
..............................................................................



L-inf norm summary: end of timestep
..............................................................................
Level 0
  velocity                 7.680960979         1.639566615         2.177517378
  gp                      0.0765531091         0.171116365       0.05815309077
  temperature              296.8951051
  tke                     0.7325251006
..............................................................................

WallClockTime: 30004 Pre: 1.28 Solve: 2.687 Post: 0.0276 Total: 3.996
Solve time per cell: 0.0002624

==============================================================================
Step: 30005 dt: 0.5 Time: 15002 to 15002.5
CFL: 0.330676 (conv: 0.32004 diff: 0 src: 0.0593039 )

L-inf norm summary: before predictor step
..............................................................................
Level 0
  velocity                 7.680960979         1.639566615         2.177517378
  gp                      0.0765531091         0.171116365       0.05815309077
  temperature              296.8951051
  tke                     0.7325251006
..............................................................................


Godunov:
  System                     Iters      Initial residual        Final residual
  ----------------------------------------------------------------------------
  MAC_projection                 4         0.03752281486        1.92864051e-08
  temperature_solve              2        0.001214701579       2.433466761e-10
  tke_solve                      2        0.004657973703       1.119174864e-09
  velocity_solve                 1        0.005393181422       5.154598973e-06

L-inf norm summary: before projection
..............................................................................
Level 0
  velocity                 7.677586926         1.640532072          2.16524372
  gp                      0.0765531091         0.171116365       0.05815309077
  temperature              296.8951042
  tke                     0.7273841459
..............................................................................

  Nodal_projection             200         0.02730516572         0.03724140125

L-inf norm summary: after projection
..............................................................................
Level 0
  velocity                 7.678088573         1.640783051         2.165742701
  gp                     0.08019621065        0.1700412499       0.05791527017
  temperature              296.8951042
  tke                     0.7273841459
..............................................................................



L-inf norm summary: end of timestep
..............................................................................
Level 0
  velocity                 7.678088573         1.640783051         2.165742701
  gp                     0.08019621065        0.1700412499       0.05791527017
  temperature              296.8951042
  tke                     0.7273841459
..............................................................................

WallClockTime: 30005 Pre: 0.858 Solve: 2.757 Post: 0.0257 Total: 3.642
Solve time per cell: 0.0002693

==============================================================================
Step: 30006 dt: 0.5 Time: 15002.5 to 15003
CFL: 0.330697 (conv: 0.31992 diff: 0 src: 0.0596985 )

L-inf norm summary: before predictor step
..............................................................................
Level 0
  velocity                 7.678088573         1.640783051         2.165742701
  gp                     0.08019621065        0.1700412499       0.05791527017
  temperature              296.8951042
  tke                     0.7273841459
..............................................................................


Godunov:
  System                     Iters      Initial residual        Final residual
  ----------------------------------------------------------------------------
  MAC_projection                 4         0.03789559029       1.927516559e-08
  temperature_solve              2        0.001186006533       2.299316293e-10
  tke_solve                      2        0.004676623431       1.053992671e-09
  velocity_solve                 1        0.005389091011         5.2342337e-06

L-inf norm summary: before projection
..............................................................................
Level 0
  velocity                 7.672451387         1.642620604         2.165710756
  gp                     0.08019621065        0.1700412499       0.05791527017
  temperature              296.8951043
  tke                     0.7298150012
..............................................................................

  Nodal_projection             200         0.02855583851         0.03854589887

L-inf norm summary: after projection
..............................................................................
Level 0
  velocity                 7.673244236         1.642809195         2.166183366
  gp                     0.08243835458        0.1672516467       0.05689562321
  temperature              296.8951043
  tke                     0.7298150012
..............................................................................



L-inf norm summary: end of timestep
..............................................................................
Level 0
  velocity                 7.673244236         1.642809195         2.166183366
  gp                     0.08243835458        0.1672516467       0.05689562321
  temperature              296.8951043
  tke                     0.7298150012
..............................................................................

WallClockTime: 30006 Pre: 0.274 Solve: 2.741 Post: 0.0291 Total: 3.044
Solve time per cell: 0.0002676

==============================================================================
Step: 30007 dt: 0.5 Time: 15003 to 15003.5
CFL: 0.330437 (conv: 0.319719 diff: 0 src: 0.0595116 )

L-inf norm summary: before predictor step
..............................................................................
Level 0
  velocity                 7.673244236         1.642809195         2.166183366
  gp                     0.08243835458        0.1672516467       0.05689562321
  temperature              296.8951043
  tke                     0.7298150012
..............................................................................


Godunov:
  System                     Iters      Initial residual        Final residual
  ----------------------------------------------------------------------------
  MAC_projection                 4         0.03948497638       1.823319374e-08
  temperature_solve              2        0.001118913251       2.269189281e-10
  tke_solve                      2        0.004618231073       1.086986723e-09
  velocity_solve                 1        0.005362670668       5.166995997e-06

L-inf norm summary: before projection
..............................................................................
Level 0
  velocity                 7.673800499         1.644081218         2.175302354
  gp                     0.08243835458        0.1672516467       0.05689562321
  temperature              296.8951041
  tke                     0.7312567812
..............................................................................

  Nodal_projection             200         0.02936278973         0.03918218777

L-inf norm summary: after projection
..............................................................................
Level 0
  velocity                 7.674472086         1.644385065         2.175732116
  gp                     0.08353864988        0.1636503699       0.05475826071
  temperature              296.8951041
  tke                     0.7312567812
..............................................................................



L-inf norm summary: end of timestep
..............................................................................
Level 0
  velocity                 7.674472086         1.644385065         2.175732116
  gp                     0.08353864988        0.1636503699       0.05475826071
  temperature              296.8951041
  tke                     0.7312567812
..............................................................................

WallClockTime: 30007 Pre: 0.261 Solve: 2.652 Post: 0.0264 Total: 2.939
Solve time per cell: 0.000259

==============================================================================
Step: 30008 dt: 0.5 Time: 15003.5 to 15004
CFL: 0.330316 (conv: 0.31977 diff: 0 src: 0.0590222 )

L-inf norm summary: before predictor step
..............................................................................
Level 0
  velocity                 7.674472086         1.644385065         2.175732116
  gp                     0.08353864988        0.1636503699       0.05475826071
  temperature              296.8951041
  tke                     0.7312567812
..............................................................................


Godunov:
  System                     Iters      Initial residual        Final residual
  ----------------------------------------------------------------------------
  MAC_projection                 4         0.04057484464       1.768825971e-08
  temperature_solve              2        0.001187454222       2.413003131e-10
  tke_solve                      2        0.004477609928       1.125607829e-09
  velocity_solve                 1        0.005416403458       4.959771125e-06

L-inf norm summary: before projection
..............................................................................
Level 0
  velocity                 7.672550474         1.642268018         2.173406068
  gp                     0.08353864988        0.1636503699       0.05475826071
  temperature              296.8951031
  tke                     0.7305118073
..............................................................................

  Nodal_projection             200         0.02963345341         0.03909251185

L-inf norm summary: after projection
..............................................................................
Level 0
  velocity                 7.673112785         1.642608476         2.173797947
  gp                     0.08383663237        0.1593730009       0.05300317853
  temperature              296.8951031
  tke                     0.7305118073
..............................................................................



L-inf norm summary: end of timestep
..............................................................................
Level 0
  velocity                 7.673112785         1.642608476         2.173797947
  gp                     0.08383663237        0.1593730009       0.05300317853
  temperature              296.8951031
  tke                     0.7305118073
..............................................................................

WallClockTime: 30008 Pre: 0.277 Solve: 2.676 Post: 0.0264 Total: 2.979
Solve time per cell: 0.0002613

==============================================================================
Step: 30009 dt: 0.5 Time: 15004 to 15004.5
CFL: 0.330041 (conv: 0.319713 diff: 0 src: 0.058384 )

L-inf norm summary: before predictor step
..............................................................................
Level 0
  velocity                 7.673112785         1.642608476         2.173797947
  gp                     0.08383663237        0.1593730009       0.05300317853
  temperature              296.8951031
  tke                     0.7305118073
..............................................................................


Godunov:
  System                     Iters      Initial residual        Final residual
  ----------------------------------------------------------------------------
  MAC_projection                 4         0.04120625456       1.770750706e-08
  temperature_solve              2        0.001212295702       2.398792276e-10
  tke_solve                      2        0.004580960183        1.16156218e-09
  velocity_solve                 1        0.005449482774       4.894917843e-06

L-inf norm summary: before projection
..............................................................................
Level 0
  velocity                 7.668258542         1.644125983         2.168950876
  gp                     0.08383663237        0.1593730009       0.05300317853
  temperature              296.8951022
  tke                     0.7270751304
..............................................................................

  Nodal_projection             200         0.02933220189         0.03913384829

L-inf norm summary: after projection
..............................................................................
Level 0
  velocity                 7.668668241         1.644400422         2.169443384
  gp                     0.08347138692        0.1543238935       0.05245271544
  temperature              296.8951022
  tke                     0.7270751304
..............................................................................



L-inf norm summary: end of timestep
..............................................................................
Level 0
  velocity                 7.668668241         1.644400422         2.169443384
  gp                     0.08347138692        0.1543238935       0.05245271544
  temperature              296.8951022
  tke                     0.7270751304
..............................................................................

WallClockTime: 30009 Pre: 0.24 Solve: 2.723 Post: 0.0272 Total: 2.99
Solve time per cell: 0.0002659

==============================================================================
Step: 30010 dt: 0.5 Time: 15004.5 to 15005
CFL: 0.3296 (conv: 0.319528 diff: 0 src: 0.0576166 )

L-inf norm summary: before predictor step
..............................................................................
Level 0
  velocity                 7.668668241         1.644400422         2.169443384
  gp                     0.08347138692        0.1543238935       0.05245271544
  temperature              296.8951022
  tke                     0.7270751304
..............................................................................


Godunov:
  System                     Iters      Initial residual        Final residual
  ----------------------------------------------------------------------------
  MAC_projection                 4         0.04144553682        1.78285601e-08
  temperature_solve              2        0.001169226753       2.400497578e-10
  tke_solve                      2        0.004641934033       1.189470633e-09
  velocity_solve                 1        0.005456906915       5.076584171e-06

L-inf norm summary: before projection
..............................................................................
Level 0
  velocity                  7.66595229         1.642233918         2.166815609
  gp                     0.08347138692        0.1543238935       0.05245271544
  temperature              296.8951019
  tke                     0.7243385527
..............................................................................

  Nodal_projection             200         0.02997996004         0.03992457539

L-inf norm summary: after projection
..............................................................................
Level 0
  velocity                 7.666685226         1.642654028          2.16720032
  gp                     0.08242492861        0.1485519626        0.0526185906
  temperature              296.8951019
  tke                     0.7243385527
..............................................................................



L-inf norm summary: end of timestep
..............................................................................
Level 0
  velocity                 7.666685226         1.642654028          2.16720032
  gp                     0.08242492861        0.1485519626        0.0526185906
  temperature              296.8951019
  tke                     0.7243385527
..............................................................................

WallClockTime: 30010 Pre: 0.221 Solve: 2.686 Post: 0.0306 Total: 2.938
Solve time per cell: 0.0002623

==============================================================================
Step: 30011 dt: 0.5 Time: 15005 to 15005.5
CFL: 0.32921 (conv: 0.319445 diff: 0 src: 0.0566973 )

L-inf norm summary: before predictor step
..............................................................................
Level 0
  velocity                 7.666685226         1.642654028          2.16720032
  gp                     0.08242492861        0.1485519626        0.0526185906
  temperature              296.8951019
  tke                     0.7243385527
..............................................................................


Godunov:
  System                     Iters      Initial residual        Final residual
  ----------------------------------------------------------------------------
  MAC_projection                 4         0.04128336076       1.776427806e-08
  temperature_solve              2         0.00112656131       2.495426088e-10
  tke_solve                      2        0.004630033837       1.201208355e-09
  velocity_solve                 1        0.005438136972       5.120508293e-06

L-inf norm summary: before projection
..............................................................................
Level 0
  velocity                 7.666156123         1.641579278         2.168054717
  gp                     0.08242492861        0.1485519626        0.0526185906
  temperature              296.8951017
  tke                     0.7266842497
..............................................................................

  Nodal_projection             200         0.03049456562         0.04013657715

L-inf norm summary: after projection
..............................................................................
Level 0
  velocity                 7.666780929         1.641769356         2.168536265
  gp                     0.08106743836        0.1498130634       0.05360530443
  temperature              296.8951017
  tke                     0.7266842497
..............................................................................



L-inf norm summary: end of timestep
..............................................................................
Level 0
  velocity                 7.666780929         1.641769356         2.168536265
  gp                     0.08106743836        0.1498130634       0.05360530443
  temperature              296.8951017
  tke                     0.7266842497
..............................................................................

WallClockTime: 30011 Pre: 0.461 Solve: 2.697 Post: 0.027 Total: 3.186
Solve time per cell: 0.0002634

==============================================================================
Step: 30012 dt: 0.5 Time: 15005.5 to 15006
CFL: 0.328859 (conv: 0.319449 diff: 0 src: 0.0556278 )

L-inf norm summary: before predictor step
..............................................................................
Level 0
  velocity                 7.666780929         1.641769356         2.168536265
  gp                     0.08106743836        0.1498130634       0.05360530443
  temperature              296.8951017
  tke                     0.7266842497
..............................................................................


Godunov:
  System                     Iters      Initial residual        Final residual
  ----------------------------------------------------------------------------
  MAC_projection                 4         0.03810217869       1.764861738e-08
  temperature_solve              2        0.001193169546       2.481215233e-10
  tke_solve                      2        0.004540366645       1.194799482e-09
  velocity_solve                 1        0.005437936395       5.022340313e-06

L-inf norm summary: before projection
..............................................................................
Level 0
  velocity                 7.664100031         1.640402159         2.163809637
  gp                     0.08106743836        0.1498130634       0.05360530443
  temperature              296.8951007
  tke                     0.7271531075
..............................................................................

  Nodal_projection             200         0.03052509721         0.03972324807

L-inf norm summary: after projection
..............................................................................
Level 0
  velocity                 7.664557369         1.640789688         2.164194539
  gp                     0.07951657576        0.1503452581       0.05398146638
  temperature              296.8951007
  tke                     0.7271531075
..............................................................................



L-inf norm summary: end of timestep
..............................................................................
Level 0
  velocity                 7.664557369         1.640789688         2.164194539
  gp                     0.07951657576        0.1503452581       0.05398146638
  temperature              296.8951007
  tke                     0.7271531075
..............................................................................

WallClockTime: 30012 Pre: 0.24 Solve: 2.676 Post: 0.0259 Total: 2.942
Solve time per cell: 0.0002614

==============================================================================
Step: 30013 dt: 0.5 Time: 15006 to 15006.5
CFL: 0.328853 (conv: 0.319357 diff: 0 src: 0.0558822 )

L-inf norm summary: before predictor step
..............................................................................
Level 0
  velocity                 7.664557369         1.640789688         2.164194539
  gp                     0.07951657576        0.1503452581       0.05398146638
  temperature              296.8951007
  tke                     0.7271531075
..............................................................................


Godunov:
  System                     Iters      Initial residual        Final residual
  ----------------------------------------------------------------------------
  MAC_projection                 4         0.03887357296       1.759964511e-08
  temperature_solve              2        0.001202175795       2.365254659e-10
  tke_solve                      2        0.004477844157       1.167436259e-09
  velocity_solve                 1        0.005478765193       4.939284866e-06

L-inf norm summary: before projection
..............................................................................
Level 0
  velocity                 7.656871348         1.636320872         2.169718815
  gp                     0.07951657576        0.1503452581       0.05398146638
  temperature              296.8951001
  tke                     0.7253119069
..............................................................................

  Nodal_projection             200         0.03002602473         0.03866578186

L-inf norm summary: after projection
..............................................................................
Level 0
  velocity                 7.657510484         1.636540845         2.170195801
  gp                     0.08204190079        0.1501761231       0.05395651128
  temperature              296.8951001
  tke                     0.7253119069
..............................................................................



L-inf norm summary: end of timestep
..............................................................................
Level 0
  velocity                 7.657510484         1.636540845         2.170195801
  gp                     0.08204190079        0.1501761231       0.05395651128
  temperature              296.8951001
  tke                     0.7253119069
..............................................................................

WallClockTime: 30013 Pre: 0.726 Solve: 2.693 Post: 0.0307 Total: 3.449
Solve time per cell: 0.0002629

==============================================================================
Step: 30014 dt: 0.5 Time: 15006.5 to 15007
CFL: 0.3286 (conv: 0.319063 diff: 0 src: 0.0559806 )

L-inf norm summary: before predictor step
..............................................................................
Level 0
  velocity                 7.657510484         1.636540845         2.170195801
  gp                     0.08204190079        0.1501761231       0.05395651128
  temperature              296.8951001
  tke                     0.7253119069
..............................................................................


Godunov:
  System                     Iters      Initial residual        Final residual
  ----------------------------------------------------------------------------
  MAC_projection                 4           0.039281057       1.784569241e-08
  temperature_solve              2        0.001147527934        2.19984031e-10
  tke_solve                      2        0.004573481274       1.120122772e-09
  velocity_solve                 1        0.005496459529       5.130908857e-06

L-inf norm summary: before projection
..............................................................................
Level 0
  velocity                  7.65832819         1.637575005         2.172699273
  gp                     0.08204190079        0.1501761231       0.05395651128
  temperature              296.8950998
  tke                      0.720561797
..............................................................................

  Nodal_projection             200          0.0289817677         0.03789346043

L-inf norm summary: after projection
..............................................................................
Level 0
  velocity                 7.658998004         1.637897699         2.173233463
  gp                     0.08393104743        0.1497348806       0.05410662002
  temperature              296.8950998
  tke                      0.720561797
..............................................................................



L-inf norm summary: end of timestep
..............................................................................
Level 0
  velocity                 7.658998004         1.637897699         2.173233463
  gp                     0.08393104743        0.1497348806       0.05410662002
  temperature              296.8950998
  tke                      0.720561797
..............................................................................

WallClockTime: 30014 Pre: 0.275 Solve: 2.696 Post: 0.0279 Total: 2.999
Solve time per cell: 0.0002633

==============================================================================
Step: 30015 dt: 0.5 Time: 15007 to 15007.5
CFL: 0.328649 (conv: 0.319125 diff: 0 src: 0.0559483 )

L-inf norm summary: before predictor step
..............................................................................
Level 0
  velocity                 7.658998004         1.637897699         2.173233463
  gp                     0.08393104743        0.1497348806       0.05410662002
  temperature              296.8950998
  tke                      0.720561797
..............................................................................


Godunov:
  System                     Iters      Initial residual        Final residual
  ----------------------------------------------------------------------------
  MAC_projection                 4         0.03468845884       1.787104396e-08
  temperature_solve              2        0.001151692786       2.278284228e-10
  tke_solve                      2        0.004616263822         1.0545117e-09
  velocity_solve                 1        0.005488364646       5.193153823e-06

L-inf norm summary: before projection
..............................................................................
Level 0
  velocity                 7.658683366         1.632775244         2.176972662
  gp                     0.08393104743        0.1497348806       0.05410662002
  temperature              296.8950996
  tke                     0.7210774884
..............................................................................

  Nodal_projection             200         0.02910457316         0.03786186895

L-inf norm summary: after projection
..............................................................................
Level 0
  velocity                 7.659201598         1.633254814         2.177486268
  gp                     0.08553464765        0.1484408904       0.05348876027
  temperature              296.8950996
  tke                     0.7210774884
..............................................................................



L-inf norm summary: end of timestep
..............................................................................
Level 0
  velocity                 7.659201598         1.633254814         2.177486268
  gp                     0.08553464765        0.1484408904       0.05348876027
  temperature              296.8950996
  tke                     0.7210774884
..............................................................................

WallClockTime: 30015 Pre: 0.208 Solve: 2.655 Post: 0.0258 Total: 2.888
Solve time per cell: 0.0002593

==============================================================================
Step: 30016 dt: 0.5 Time: 15007.5 to 15008
CFL: 0.32863 (conv: 0.319133 diff: 0 src: 0.0558655 )

L-inf norm summary: before predictor step
..............................................................................
Level 0
  velocity                 7.659201598         1.633254814         2.177486268
  gp                     0.08553464765        0.1484408904       0.05348876027
  temperature              296.8950996
  tke                     0.7210774884
..............................................................................


Godunov:
  System                     Iters      Initial residual        Final residual
  ----------------------------------------------------------------------------
  MAC_projection                 4         0.03618687164       1.778055025e-08
  temperature_solve              2        0.001192360739       2.428350854e-10
  tke_solve                      2        0.004577819402         1.0612764e-09
  velocity_solve                 1        0.005456541449       5.101599258e-06

L-inf norm summary: before projection
..............................................................................
Level 0
  velocity                 7.653564093         1.633254602         2.169377938
  gp                     0.08553464765        0.1484408904       0.05348876027
  temperature              296.8950985
  tke                     0.7226560002
..............................................................................

  Nodal_projection             200         0.02896360244         0.03732856414

L-inf norm summary: after projection
..............................................................................
Level 0
  velocity                 7.653925874         1.633529498         2.169891081
  gp                      0.0865937178        0.1462460452       0.05284582983
  temperature              296.8950985
  tke                     0.7226560002
..............................................................................



L-inf norm summary: end of timestep
..............................................................................
Level 0
  velocity                 7.653925874         1.633529498         2.169891081
  gp                      0.0865937178        0.1462460452       0.05284582983
  temperature              296.8950985
  tke                     0.7226560002
..............................................................................

WallClockTime: 30016 Pre: 0.264 Solve: 2.66 Post: 0.0278 Total: 2.952
Solve time per cell: 0.0002597

==============================================================================
Step: 30017 dt: 0.5 Time: 15008 to 15008.5
CFL: 0.328337 (conv: 0.318914 diff: 0 src: 0.0556235 )

L-inf norm summary: before predictor step
..............................................................................
Level 0
  velocity                 7.653925874         1.633529498         2.169891081
  gp                      0.0865937178        0.1462460452       0.05284582983
  temperature              296.8950985
  tke                     0.7226560002
..............................................................................


Godunov:
  System                     Iters      Initial residual        Final residual
  ----------------------------------------------------------------------------
  MAC_projection                 4         0.03695548447       1.748292566e-08
  temperature_solve              2        0.001186590879       2.505657903e-10
  tke_solve                      2        0.004453501398       1.101957192e-09
  velocity_solve                 1          0.0054824516       4.866468056e-06

L-inf norm summary: before projection
..............................................................................
Level 0
  velocity                 7.648922074         1.631206479         2.167512049
  gp                      0.0865937178        0.1462460452       0.05284582983
  temperature              296.8950981
  tke                     0.7222915734
..............................................................................

  Nodal_projection             200         0.02839325309         0.03630027985

L-inf norm summary: after projection
..............................................................................
Level 0
  velocity                 7.649653824         1.631666597         2.167973432
  gp                     0.08595429179        0.1433190752       0.05304231462
  temperature              296.8950981
  tke                     0.7222915734
..............................................................................



L-inf norm summary: end of timestep
..............................................................................
Level 0
  velocity                 7.649653824         1.631666597         2.167973432
  gp                     0.08595429179        0.1433190752       0.05304231462
  temperature              296.8950981
  tke                     0.7222915734
..............................................................................

WallClockTime: 30017 Pre: 0.231 Solve: 2.709 Post: 0.0275 Total: 2.967
Solve time per cell: 0.0002645

==============================================================================
Step: 30018 dt: 0.5 Time: 15008.5 to 15009
CFL: 0.328028 (conv: 0.318736 diff: 0 src: 0.055211 )

L-inf norm summary: before predictor step
..............................................................................
Level 0
  velocity                 7.649653824         1.631666597         2.167973432
  gp                     0.08595429179        0.1433190752       0.05304231462
  temperature              296.8950981
  tke                     0.7222915734
..............................................................................


Godunov:
  System                     Iters      Initial residual        Final residual
  ----------------------------------------------------------------------------
  MAC_projection                 4         0.03299229142       1.784823877e-08
  temperature_solve              2        0.001142471771       2.481215233e-10
  tke_solve                      2        0.004480349645       1.141772232e-09
  velocity_solve                 1        0.005508678841       4.815938057e-06

L-inf norm summary: before projection
..............................................................................
Level 0
  velocity                 7.651919966         1.625277279         2.176280418
  gp                     0.08595429179        0.1433190752       0.05304231462
  temperature              296.8950974
  tke                      0.719410459
..............................................................................

  Nodal_projection             200         0.02738051983         0.03479735386

L-inf norm summary: after projection
..............................................................................
Level 0
  velocity                 7.652507828         1.625344079         2.176789943
  gp                     0.08375799214        0.1393998736       0.05314722998
  temperature              296.8950974
  tke                      0.719410459
..............................................................................



L-inf norm summary: end of timestep
..............................................................................
Level 0
  velocity                 7.652507828         1.625344079         2.176789943
  gp                     0.08375799214        0.1393998736       0.05314722998
  temperature              296.8950974
  tke                      0.719410459
..............................................................................

WallClockTime: 30018 Pre: 0.699 Solve: 2.668 Post: 0.0265 Total: 3.394
Solve time per cell: 0.0002606

==============================================================================
Step: 30019 dt: 0.5 Time: 15009 to 15009.5
CFL: 0.327963 (conv: 0.318854 diff: 0 src: 0.0546564 )

L-inf norm summary: before predictor step
..............................................................................
Level 0
  velocity                 7.652507828         1.625344079         2.176789943
  gp                     0.08375799214        0.1393998736       0.05314722998
  temperature              296.8950974
  tke                      0.719410459
..............................................................................


Godunov:
  System                     Iters      Initial residual        Final residual
  ----------------------------------------------------------------------------
  MAC_projection                 4         0.03342606919        1.84954033e-08
  temperature_solve              2        0.001168334208       2.494857654e-10
  tke_solve                      2        0.004565546035       1.174666808e-09
  velocity_solve                 1        0.005511536883       4.986039311e-06

L-inf norm summary: before projection
..............................................................................
Level 0
  velocity                 7.649090546         1.628998324         2.181222792
  gp                     0.08375799214        0.1393998736       0.05314722998
  temperature              296.8950971
  tke                     0.7144698433
..............................................................................

  Nodal_projection             200         0.02597686819         0.03287548945

L-inf norm summary: after projection
..............................................................................
Level 0
  velocity                 7.649502926         1.629334773         2.181677999
  gp                     0.07981180924        0.1345809502       0.05310097639
  temperature              296.8950971
  tke                     0.7144698433
..............................................................................



L-inf norm summary: end of timestep
..............................................................................
Level 0
  velocity                 7.649502926         1.629334773         2.181677999
  gp                     0.07981180924        0.1345809502       0.05310097639
  temperature              296.8950971
  tke                     0.7144698433
..............................................................................

WallClockTime: 30019 Pre: 0.272 Solve: 2.688 Post: 0.0273 Total: 2.987
Solve time per cell: 0.0002625

==============================================================================
Step: 30020 dt: 0.5 Time: 15009.5 to 15010
CFL: 0.327599 (conv: 0.318729 diff: 0 src: 0.053905 )

L-inf norm summary: before predictor step
..............................................................................
Level 0
  velocity                 7.649502926         1.629334773         2.181677999
  gp                     0.07981180924        0.1345809502       0.05310097639
  temperature              296.8950971
  tke                     0.7144698433
..............................................................................


Godunov:
  System                     Iters      Initial residual        Final residual
  ----------------------------------------------------------------------------
  MAC_projection                 4         0.03330857406       1.888491391e-08
  temperature_solve              2        0.001185601404       2.396518539e-10
  tke_solve                      2        0.004577482596       1.191743038e-09
  velocity_solve                 1        0.005491943693       5.015857561e-06

L-inf norm summary: before projection
..............................................................................
Level 0
  velocity                  7.64132514         1.624173795         2.173859115
  gp                     0.07981180924        0.1345809502       0.05310097639
  temperature              296.8950964
  tke                     0.7170063964
..............................................................................

  Nodal_projection             200         0.02426169148         0.03059820452

L-inf norm summary: after projection
..............................................................................
Level 0
  velocity                 7.641638046         1.624674382         2.174343479
  gp                     0.07455996097        0.1350737672       0.05315242871
  temperature              296.8950964
  tke                     0.7170063964
..............................................................................



L-inf norm summary: end of timestep
..............................................................................
Level 0
  velocity                 7.641638046         1.624674382         2.174343479
  gp                     0.07455996097        0.1350737672       0.05315242871
  temperature              296.8950964
  tke                     0.7170063964
..............................................................................

WallClockTime: 30020 Pre: 0.267 Solve: 2.68 Post: 0.0269 Total: 2.974
Solve time per cell: 0.0002617

==============================================================================
Step: 30021 dt: 0.5 Time: 15010 to 15010.5
CFL: 0.32698 (conv: 0.318402 diff: 0 src: 0.0529616 )

L-inf norm summary: before predictor step
..............................................................................
Level 0
  velocity                 7.641638046         1.624674382         2.174343479
  gp                     0.07455996097        0.1350737672       0.05315242871
  temperature              296.8950964
  tke                     0.7170063964
..............................................................................


Godunov:
  System                     Iters      Initial residual        Final residual
  ----------------------------------------------------------------------------
  MAC_projection                 4         0.03420212425       1.919077846e-08
  temperature_solve              2        0.001166460244       2.207798389e-10
  tke_solve                      2         0.00451040084        1.19052479e-09
  velocity_solve                 1        0.005460698817       4.902638438e-06

L-inf norm summary: before projection
..............................................................................
Level 0
  velocity                 7.643677476         1.622395378         2.162454005
  gp                     0.07455996097        0.1350737672       0.05315242871
  temperature              296.8950959
  tke                     0.7179393417
..............................................................................

  Nodal_projection             200         0.02226597061         0.02802056337

L-inf norm summary: after projection
..............................................................................
Level 0
  velocity                 7.644356472         1.622544987         2.162894666
  gp                     0.07127346943         0.134388034        0.0533041921
  temperature              296.8950959
  tke                     0.7179393417
..............................................................................



L-inf norm summary: end of timestep
..............................................................................
Level 0
  velocity                 7.644356472         1.622544987         2.162894666
  gp                     0.07127346943         0.134388034        0.0533041921
  temperature              296.8950959
  tke                     0.7179393417
..............................................................................

WallClockTime: 30021 Pre: 0.784 Solve: 2.677 Post: 0.0268 Total: 3.488
Solve time per cell: 0.0002615

==============================================================================
Step: 30022 dt: 0.5 Time: 15010.5 to 15011
CFL: 0.327121 (conv: 0.318515 diff: 0 src: 0.0530602 )

L-inf norm summary: before predictor step
..............................................................................
Level 0
  velocity                 7.644356472         1.622544987         2.162894666
  gp                     0.07127346943         0.134388034        0.0533041921
  temperature              296.8950959
  tke                     0.7179393417
..............................................................................


Godunov:
  System                     Iters      Initial residual        Final residual
  ----------------------------------------------------------------------------
  MAC_projection                 4         0.03284981088       1.985601552e-08
  temperature_solve              2        0.001163333122       2.344791028e-10
  tke_solve                      2        0.004359821296       1.167003383e-09
  velocity_solve                 1        0.005498116734       4.822786644e-06

L-inf norm summary: before projection
..............................................................................
Level 0
  velocity                 7.643358853         1.624652138         2.174948953
  gp                     0.07127346943         0.134388034        0.0533041921
  temperature              296.8950953
  tke                     0.7167667624
..............................................................................

  Nodal_projection             200         0.02017689129          0.0253226971

L-inf norm summary: after projection
..............................................................................
Level 0
  velocity                 7.643843545         1.625012068          2.17543709
  gp                     0.07017603913        0.1320025808       0.05334681622
  temperature              296.8950953
  tke                     0.7167667624
..............................................................................



L-inf norm summary: end of timestep
..............................................................................
Level 0
  velocity                 7.643843545         1.625012068          2.17543709
  gp                     0.07017603913        0.1320025808       0.05334681622
  temperature              296.8950953
  tke                     0.7167667624
..............................................................................

WallClockTime: 30022 Pre: 0.312 Solve: 2.995 Post: 0.0281 Total: 3.335
Solve time per cell: 0.0002924

==============================================================================
Step: 30023 dt: 0.5 Time: 15011 to 15011.5
CFL: 0.327059 (conv: 0.318493 diff: 0 src: 0.0529272 )

L-inf norm summary: before predictor step
..............................................................................
Level 0
  velocity                 7.643843545         1.625012068          2.17543709
  gp                     0.07017603913        0.1320025808       0.05334681622
  temperature              296.8950953
  tke                     0.7167667624
..............................................................................


Godunov:
  System                     Iters      Initial residual        Final residual
  ----------------------------------------------------------------------------
  MAC_projection                 4          0.0332426141       2.048763746e-08
  temperature_solve              2        0.001177044029       2.435172064e-10
  tke_solve                      2        0.004481036756       1.121666537e-09
  velocity_solve                 1        0.005510256388       5.010618244e-06

L-inf norm summary: before projection
..............................................................................
Level 0
  velocity                 7.637767599         1.626407193         2.180065462
  gp                     0.07017603913        0.1320025808       0.05334681622
  temperature              296.8950949
  tke                      0.712819785
..............................................................................

  Nodal_projection             200         0.01918224873         0.02406185628

L-inf norm summary: after projection
..............................................................................
Level 0
  velocity                 7.638118331         1.626441763         2.180476608
  gp                     0.06742797288        0.1286079121       0.05326578039
  temperature              296.8950949
  tke                      0.712819785
..............................................................................



L-inf norm summary: end of timestep
..............................................................................
Level 0
  velocity                 7.638118331         1.626441763         2.180476608
  gp                     0.06742797288        0.1286079121       0.05326578039
  temperature              296.8950949
  tke                      0.712819785
..............................................................................

WallClockTime: 30023 Pre: 4.85 Solve: 2.689 Post: 0.0265 Total: 7.569
Solve time per cell: 0.0002626

==============================================================================
Step: 30024 dt: 0.5 Time: 15011.5 to 15012
CFL: 0.326678 (conv: 0.318255 diff: 0 src: 0.0524576 )

L-inf norm summary: before predictor step
..............................................................................
Level 0
  velocity                 7.638118331         1.626441763         2.180476608
  gp                     0.06742797288        0.1286079121       0.05326578039
  temperature              296.8950949
  tke                      0.712819785
..............................................................................


Godunov:
  System                     Iters      Initial residual        Final residual
  ----------------------------------------------------------------------------
  MAC_projection                 4         0.03299653683       2.085594012e-08
  temperature_solve              2        0.001174011009       2.422098078e-10
  tke_solve                      2        0.004541722881       1.056733256e-09
  velocity_solve                 1        0.005502313285       5.059436273e-06

L-inf norm summary: before projection
..............................................................................
Level 0
  velocity                 7.633875307           1.6315018         2.172554077
  gp                     0.06742797288        0.1286079121       0.05326578039
  temperature              296.8950944
  tke                     0.7103637499
..............................................................................

  Nodal_projection             200         0.01806916561         0.02267976003

L-inf norm summary: after projection
..............................................................................
Level 0
  velocity                 7.634621426         1.631605718         2.172993206
  gp                     0.06620855837        0.1302685398       0.05338414533
  temperature              296.8950944
  tke                     0.7103637499
..............................................................................



L-inf norm summary: end of timestep
..............................................................................
Level 0
  velocity                 7.634621426         1.631605718         2.172993206
  gp                     0.06620855837        0.1302685398       0.05338414533
  temperature              296.8950944
  tke                     0.7103637499
..............................................................................

WallClockTime: 30024 Pre: 1.07 Solve: 2.638 Post: 0.0261 Total: 3.739
Solve time per cell: 0.0002576

==============================================================================
Step: 30025 dt: 0.5 Time: 15012 to 15012.5
CFL: 0.326324 (conv: 0.318109 diff: 0 src: 0.0517752 )

L-inf norm summary: before predictor step
..............................................................................
Level 0
  velocity                 7.634621426         1.631605718         2.172993206
  gp                     0.06620855837        0.1302685398       0.05338414533
  temperature              296.8950944
  tke                     0.7103637499
..............................................................................


Godunov:
  System                     Iters      Initial residual        Final residual
  ----------------------------------------------------------------------------
  MAC_projection                 4         0.03351568676       2.132155399e-08
  temperature_solve              2         0.00114289836       2.535784915e-10
  tke_solve                      2        0.004531231007       1.058291677e-09
  velocity_solve                 1        0.005471890234       4.965526311e-06

L-inf norm summary: before projection
..............................................................................
Level 0
  velocity                 7.636228496         1.638864034         2.162964724
  gp                     0.06620855837        0.1302685398       0.05338414533
  temperature              296.8950938
  tke                     0.7124158367
..............................................................................

  Nodal_projection             200         0.01682051954         0.02115792582

L-inf norm summary: after projection
..............................................................................
Level 0
  velocity                 7.636817006         1.638951861         2.163321019
  gp                     0.06514847272        0.1299811533         0.053493173
  temperature              296.8950938
  tke                     0.7124158367
..............................................................................



L-inf norm summary: end of timestep
..............................................................................
Level 0
  velocity                 7.636817006         1.638951861         2.163321019
  gp                     0.06514847272        0.1299811533         0.053493173
  temperature              296.8950938
  tke                     0.7124158367
..............................................................................

WallClockTime: 30025 Pre: 4.08 Solve: 2.698 Post: 0.0268 Total: 6.802
Solve time per cell: 0.0002634

==============================================================================
Step: 30026 dt: 0.5 Time: 15012.5 to 15013
CFL: 0.326517 (conv: 0.318201 diff: 0 src: 0.0521098 )

L-inf norm summary: before predictor step
..............................................................................
Level 0
  velocity                 7.636817006         1.638951861         2.163321019
  gp                     0.06514847272        0.1299811533         0.053493173
  temperature              296.8950938
  tke                     0.7124158367
..............................................................................


Godunov:
  System                     Iters      Initial residual        Final residual
  ----------------------------------------------------------------------------
  MAC_projection                 4         0.03388366841       2.195042817e-08
  temperature_solve              2        0.001179010204       2.547153599e-10
  tke_solve                      2         0.00443093057       1.080099787e-09
  velocity_solve                 1        0.005463891733       4.719594406e-06

L-inf norm summary: before projection
[...]
  temperature              296.8950925
  tke                     0.7107591557
..............................................................................



L-inf norm summary: end of timestep
..............................................................................
Level 0
  velocity                 7.625415035         1.647321549         2.173395335
  gp                     0.06287616686        0.1234063597       0.05344573845
  temperature              296.8950925
  tke                     0.7107591557
..............................................................................

WallClockTime: 30027 Pre: 1.21 Solve: 2.721 Post: 0.0269 Total: 3.954
Solve time per cell: 0.0002657

==============================================================================
Step: 30028 dt: 0.5 Time: 15013.5 to 15014
CFL: 0.325889 (conv: 0.317726 diff: 0 src: 0.0515793 )

L-inf norm summary: before predictor step
..............................................................................
Level 0
  velocity                 7.625415035         1.647321549         2.173395335
  gp                     0.06287616686        0.1234063597       0.05344573845
  temperature              296.8950925
  tke                     0.7107591557
..............................................................................


Godunov:
  System                     Iters      Initial residual        Final residual
  ----------------------------------------------------------------------------
  MAC_projection                 4         0.03292185365       2.263353412e-08
  temperature_solve              2        0.001158231095       2.310116543e-10
  tke_solve                      2        0.004470563823        1.15241261e-09
  velocity_solve                 1        0.005490139739       4.817520097e-06

L-inf norm summary: before projection
..............................................................................
Level 0
  velocity                 7.627624664         1.653246056         2.165032714
  gp                     0.06287616686        0.1234063597       0.05344573845
  temperature              296.8950923
  tke                     0.7085817406
..............................................................................

  Nodal_projection             200         0.01797121334         0.02668519559

L-inf norm summary: after projection
..............................................................................
Level 0
  velocity                 7.628298983          1.65344736         2.165418259
  gp                     0.06183228197        0.1192563638       0.05362044925
  temperature              296.8950923
  tke                     0.7085817406
..............................................................................



L-inf norm summary: end of timestep
..............................................................................
Level 0
  velocity                 7.628298983          1.65344736         2.165418259
  gp                     0.06183228197        0.1192563638       0.05362044925
  temperature              296.8950923
  tke                     0.7085817406
..............................................................................

WallClockTime: 30028 Pre: 0.233 Solve: 2.716 Post: 0.0276 Total: 2.978
Solve time per cell: 0.0002653

==============================================================================
Step: 30029 dt: 0.5 Time: 15014 to 15014.5
CFL: 0.325744 (conv: 0.317846 diff: 0 src: 0.0507242 )

L-inf norm summary: before predictor step
..............................................................................
Level 0
  velocity                 7.628298983          1.65344736         2.165418259
  gp                     0.06183228197        0.1192563638       0.05362044925
  temperature              296.8950923
  tke                     0.7085817406
..............................................................................


Godunov:
  System                     Iters      Initial residual        Final residual
  ----------------------------------------------------------------------------
  MAC_projection                 4         0.03270862127       2.306301916e-08
  temperature_solve              2        0.001163945519       2.310684977e-10
  tke_solve                      2        0.004514697996       1.177095754e-09
  velocity_solve                 1        0.005472402117        4.85287031e-06

L-inf norm summary: before projection
..............................................................................
Level 0
  velocity                 7.626971916         1.656218454         2.165076097
  gp                     0.06183228197        0.1192563638       0.05362044925
  temperature              296.8950916
  tke                     0.7066290241
..............................................................................

  Nodal_projection             200         0.01956517535         0.02848942804

L-inf norm summary: after projection
..............................................................................
Level 0
  velocity                 7.627459042         1.656446874         2.165429518
  gp                      0.0614961605        0.1134521674       0.05369272549
  temperature              296.8950916
  tke                     0.7066290241
..............................................................................



L-inf norm summary: end of timestep
..............................................................................
Level 0
  velocity                 7.627459042         1.656446874         2.165429518
  gp                      0.0614961605        0.1134521674       0.05369272549
  temperature              296.8950916
  tke                     0.7066290241
..............................................................................

WallClockTime: 30029 Pre: 0.281 Solve: 2.685 Post: 0.0269 Total: 2.993
Solve time per cell: 0.0002622

==============================================================================
Step: 30030 dt: 0.5 Time: 15014.5 to 15015
CFL: 0.325444 (conv: 0.317811 diff: 0 src: 0.0498418 )

L-inf norm summary: before predictor step
..............................................................................
Level 0
  velocity                 7.627459042         1.656446874         2.165429518
  gp                      0.0614961605        0.1134521674       0.05369272549
  temperature              296.8950916
  tke                     0.7066290241
..............................................................................


Godunov:
  System                     Iters      Initial residual        Final residual
  ----------------------------------------------------------------------------
  MAC_projection                 4         0.03339301364       2.374447487e-08
  temperature_solve              2        0.001187501322       2.474394023e-10
  tke_solve                      2        0.004477927175       1.183601994e-09
  velocity_solve                 1        0.005431703436       4.734912032e-06

L-inf norm summary: before projection
..............................................................................
Level 0
  velocity                 7.621275827         1.658741631         2.170535327
  gp                      0.0614961605        0.1134521674       0.05369272549
  temperature              296.8950909
  tke                     0.7075420656
..............................................................................

  Nodal_projection             200         0.02086898852         0.02989414492

L-inf norm summary: after projection
..............................................................................
Level 0
  velocity                 7.621646953         1.659029613         2.171039398
  gp                     0.06003446071        0.1086276028       0.05366008002
  temperature              296.8950909
  tke                     0.7075420656
..............................................................................



L-inf norm summary: end of timestep
..............................................................................
Level 0
  velocity                 7.621646953         1.659029613         2.171039398
  gp                     0.06003446071        0.1086276028       0.05366008002
  temperature              296.8950909
  tke                     0.7075420656
..............................................................................

WallClockTime: 30030 Pre: 0.459 Solve: 2.657 Post: 0.0326 Total: 3.149
Solve time per cell: 0.0002595

==============================================================================
Step: 30031 dt: 0.5 Time: 15015 to 15015.5
CFL: 0.324844 (conv: 0.317569 diff: 0 src: 0.0486152 )

L-inf norm summary: before predictor step
..............................................................................
Level 0
  velocity                 7.621646953         1.659029613         2.171039398
  gp                     0.06003446071        0.1086276028       0.05366008002
  temperature              296.8950909
  tke                     0.7075420656
..............................................................................


Godunov:
  System                     Iters      Initial residual        Final residual
  ----------------------------------------------------------------------------
  MAC_projection                 4         0.03269089612       2.386688109e-08
  temperature_solve              2        0.001172911067       2.501678864e-10
  tke_solve                      2        0.004340754263       1.165880281e-09
  velocity_solve                 1        0.005444188528       4.628751589e-06

L-inf norm summary: before projection
..............................................................................
Level 0
  velocity                 7.617469406         1.662746109         2.170987667
  gp                     0.06003446071        0.1086276028       0.05366008002
  temperature              296.8950904
  tke                      0.707285355
..............................................................................

  Nodal_projection             200         0.02186716171          0.0308890379

L-inf norm summary: after projection
..............................................................................
Level 0
  velocity                 7.618178966         1.663035814         2.171479921
  gp                     0.05727585081        0.1057893674       0.05366811917
  temperature              296.8950904
  tke                      0.707285355
..............................................................................



L-inf norm summary: end of timestep
..............................................................................
Level 0
  velocity                 7.618178966         1.663035814         2.171479921
  gp                     0.05727585081        0.1057893674       0.05366811917
  temperature              296.8950904
  tke                      0.707285355
..............................................................................

WallClockTime: 30031 Pre: 0.766 Solve: 2.653 Post: 0.0261 Total: 3.444
Solve time per cell: 0.0002591

==============================================================================
Step: 30032 dt: 0.5 Time: 15015.5 to 15016
CFL: 0.324394 (conv: 0.317424 diff: 0 src: 0.0475501 )

L-inf norm summary: before predictor step
..............................................................................
Level 0
  velocity                 7.618178966         1.663035814         2.171479921
  gp                     0.05727585081        0.1057893674       0.05366811917
  temperature              296.8950904
  tke                      0.707285355
..............................................................................


Godunov:
  System                     Iters      Initial residual        Final residual
  ----------------------------------------------------------------------------
  MAC_projection                 4         0.03278276366       2.416864008e-08
  temperature_solve              2        0.001158371526       2.432898327e-10
  tke_solve                      2        0.004368360789        1.12407883e-09
  velocity_solve                 1        0.005458801956       4.817821782e-06

L-inf norm summary: before projection
..............................................................................
Level 0
  velocity                 7.619508056         1.663082188         2.159004457
  gp                     0.05727585081        0.1057893674       0.05366811917
  temperature              296.8950902
  tke                     0.7094139817
..............................................................................

  Nodal_projection             200         0.02256118687         0.03147466555

L-inf norm summary: after projection
..............................................................................
Level 0
  velocity                  7.62008345         1.663368811         2.159477321
  gp                     0.05327193121        0.1014462102       0.05379905907
  temperature              296.8950902
  tke                     0.7094139817
..............................................................................



L-inf norm summary: end of timestep
..............................................................................
Level 0
  velocity                  7.62008345         1.663368811         2.159477321
  gp                     0.05327193121        0.1014462102       0.05379905907
  temperature              296.8950902
  tke                     0.7094139817
..............................................................................

WallClockTime: 30032 Pre: 0.253 Solve: 2.646 Post: 0.0257 Total: 2.925
Solve time per cell: 0.0002584

==============================================================================
Step: 30033 dt: 0.5 Time: 15016 to 15016.5
CFL: 0.324294 (conv: 0.317503 diff: 0 src: 0.0469254 )

L-inf norm summary: before predictor step
..............................................................................
Level 0
  velocity                  7.62008345         1.663368811         2.159477321
  gp                     0.05327193121        0.1014462102       0.05379905907
  temperature              296.8950902
  tke                     0.7094139817
..............................................................................


Godunov:
  System                     Iters      Initial residual        Final residual
  ----------------------------------------------------------------------------
  MAC_projection                 4         0.03208384281       2.430153539e-08
  temperature_solve              2        0.001193908871       2.476099326e-10
  tke_solve                      2        0.004462635727       1.059774601e-09
  velocity_solve                 1        0.005454513152       4.879404298e-06

L-inf norm summary: before projection
..............................................................................
Level 0
  velocity                 7.616232097         1.666832321         2.165260352
  gp                     0.05327193121        0.1014462102       0.05379905907
  temperature              296.8950894
  tke                     0.7092770011
..............................................................................

  Nodal_projection             200         0.02405925641         0.03403112907

L-inf norm summary: after projection
..............................................................................
Level 0
  velocity                 7.616647996          1.66723591         2.165785804
  gp                     0.05525037319       0.09748866293        0.0538330618
  temperature              296.8950894
  tke                     0.7092770011
..............................................................................



L-inf norm summary: end of timestep
..............................................................................
Level 0
  velocity                 7.616647996          1.66723591         2.165785804
  gp                     0.05525037319       0.09748866293        0.0538330618
  temperature              296.8950894
  tke                     0.7092770011
..............................................................................

WallClockTime: 30033 Pre: 0.238 Solve: 2.669 Post: 0.0264 Total: 2.933
Solve time per cell: 0.0002606

==============================================================================
Step: 30034 dt: 0.5 Time: 15016.5 to 15017
CFL: 0.32388 (conv: 0.31736 diff: 0 src: 0.0459525 )

L-inf norm summary: before predictor step
..............................................................................
Level 0
  velocity                 7.616647996          1.66723591         2.165785804
  gp                     0.05525037319       0.09748866293        0.0538330618
  temperature              296.8950894
  tke                     0.7092770011
..............................................................................


Godunov:
  System                     Iters      Initial residual        Final residual
  ----------------------------------------------------------------------------
  MAC_projection                 4         0.03278033096       2.462940027e-08
  temperature_solve              2        0.001189932358       2.598312676e-10
  tke_solve                      2        0.004485256929       1.070664113e-09
  velocity_solve                 1        0.005428307602       4.787992337e-06

L-inf norm summary: before projection
..............................................................................
Level 0
  velocity                 7.608386792         1.668426416         2.176634237
  gp                     0.05525037319       0.09748866293        0.0538330618
  temperature              296.8950885
  tke                     0.7062300771
..............................................................................

  Nodal_projection             200         0.02587038875          0.0376625041

L-inf norm summary: after projection
..............................................................................
Level 0
  velocity                 7.608732038         1.668771846         2.177149433
  gp                      0.0579838694        0.1022814534        0.0537914612
  temperature              296.8950885
  tke                     0.7062300771
..............................................................................



L-inf norm summary: end of timestep
..............................................................................
Level 0
  velocity                 7.608732038         1.668771846         2.177149433
  gp                      0.0579838694        0.1022814534        0.0537914612
  temperature              296.8950885
  tke                     0.7062300771
..............................................................................

WallClockTime: 30034 Pre: 0.243 Solve: 2.685 Post: 0.0261 Total: 2.954
Solve time per cell: 0.0002622

==============================================================================
Step: 30035 dt: 0.5 Time: 15017 to 15017.5
CFL: 0.323309 (conv: 0.317031 diff: 0 src: 0.0450556 )

L-inf norm summary: before predictor step
..............................................................................
Level 0
  velocity                 7.608732038         1.668771846         2.177149433
  gp                      0.0579838694        0.1022814534        0.0537914612
  temperature              296.8950885
  tke                     0.7062300771
..............................................................................


Godunov:
  System                     Iters      Initial residual        Final residual
  ----------------------------------------------------------------------------
  MAC_projection                 4         0.03232852788        2.49078321e-08
  temperature_solve              2        0.001162163041       2.551132638e-10
