==============================================================================
                AMR-Wind (https://github.com/exawind/amr-wind)

  AMR-Wind version :: 87eabfe
  AMR-Wind Git SHA :: 87eabfed02750231c0277d00de233ce149ad004f
  AMReX version    :: 21.05-20-gfb0c16e34b93

  Exec. time       :: Tue Jun 22 12:54:29 2021
  Build time       :: Jun 16 2021 16:48:07
  C++ compiler     :: GNU 7.2.0

  MPI              :: ON    (Num. ranks = 256)
  GPU              :: OFF
  OpenMP           :: OFF

  Enabled third-party libraries: 
    NetCDF    4.7.3
    OpenFAST  

           This software is released under the BSD 3-clause license.           
 See https://github.com/Exawind/amr-wind/blob/development/LICENSE for details. 
------------------------------------------------------------------------------

MPI initialized with 256 MPI processes
MPI initialized with thread support level 0
AMReX (21.05-20-gfb0c16e34b93) initialized
Initializing AMR-Wind ...
Initializing boundary conditions for velocity_mueff
Initializing boundary conditions for velocity
Initializing boundary conditions for density
Initializing boundary conditions for p
Initializing boundary conditions for velocity_src_term
Initializing boundary conditions for gp
Creating PDESystem instance: ICNS-Godunov
ABLWallFunction: log_law_height not specified for ABL physics. Assuming log_law_height = first cell height
Initializing boundary conditions for temperature_mueff
Initializing boundary conditions for temperature
Initializing boundary conditions for temperature_src_term
Creating PDESystem instance: Temperature-Godunov
Creating ABLStatsBase instance: precursor
Creating Physics instance: ABL
Initializing boundary conditions for mu_turb
Initializing boundary conditions for tke_mueff
Initializing boundary conditions for tke
Initializing boundary conditions for tke_src_term
Creating PDESystem instance: TKE-Godunov
Creating TurbulenceModel instance: OneEqKsgsM84-ConstTransport
Creating RefinementCriteria instance: GeometryRefinement
(500 500 50)
(1000 500 50)
(1000 1000 50)
(500 1000 50)
(500 500 250)
(1000 500 250)
(1000 1000 250)
(500 1000 250)
Creating GeometryType instance: box
Creating PostProcessBase instance: Sampling
Initializing I/O manager
Restarting from checkpoint chk30000
Making new level 0 from scratch
with BoxArray (BoxArray maxbox(320)
       m_ref->m_hash_sig(0)
       ((0,0,0) (31,15,15) (0,0,0)) ((0,16,0) (31,31,15) (0,0,0)) ((0,0,16) (31,15,31) (0,0,0)) ((0,16,16) (31,31,31) (0,0,0)) ((32,0,0) (63,15,15) (0,0,0)) ((32,16,0) (63,31,15) (0,0,0)) ((32,0,16) (63,15,31) (0,0,0)) ((32,16,16) (63,31,31) (0,0,0)) ((64,0,0) (95,15,15) (0,0,0)) ((64,16,0) (95,31,15) (0,0,0)) ((64,0,16) (95,15,31) (0,0,0)) ((64,16,16) (95,31,31) (0,0,0)) ((96,0,0) (127,15,15) (0,0,0)) ((96,16,0) (127,31,15) (0,0,0)) ((96,0,16) (127,15,31) (0,0,0)) ((96,16,16) (127,31,31) (0,0,0)) ((0,32,0) (31,47,15) (0,0,0)) ((0,48,0) (31,63,15) (0,0,0)) ((0,32,16) (31,47,31) (0,0,0)) ((0,48,16) (31,63,31) (0,0,0)) ((32,32,0) (63,47,15) (0,0,0)) ((32,48,0) (63,63,15) (0,0,0)) ((32,32,16) (63,47,31) (0,0,0)) ((32,48,16) (63,63,31) (0,0,0)) ((64,32,0) (95,47,15) (0,0,0)) ((64,48,0) (95,63,15) (0,0,0)) ((64,32,16) (95,47,31) (0,0,0)) ((64,48,16) (95,63,31) (0,0,0)) ((96,32,0) (127,47,15) (0,0,0)) ((96,48,0) (127,63,15) (0,0,0)) ((96,32,16) (127,47,31) (0,0,0)) ((96,48,16) (127,63,31) (0,0,0)) ((0,64,0) (31,79,15) (0,0,0)) ((0,80,0) (31,95,15) (0,0,0)) ((0,64,16) (31,79,31) (0,0,0)) ((0,80,16) (31,95,31) (0,0,0)) ((32,64,0) (63,79,15) (0,0,0)) ((32,80,0) (63,95,15) (0,0,0)) ((32,64,16) (63,79,31) (0,0,0)) ((32,80,16) (63,95,31) (0,0,0)) ((64,64,0) (95,79,15) (0,0,0)) ((64,80,0) (95,95,15) (0,0,0)) ((64,64,16) (95,79,31) (0,0,0)) ((64,80,16) (95,95,31) (0,0,0)) ((96,64,0) (127,79,15) (0,0,0)) ((96,80,0) (127,95,15) (0,0,0)) ((96,64,16) (127,79,31) (0,0,0)) ((96,80,16) (127,95,31) (0,0,0)) ((0,96,0) (31,111,15) (0,0,0)) ((0,112,0) (31,127,15) (0,0,0)) ((0,96,16) (31,111,31) (0,0,0)) ((0,112,16) (31,127,31) (0,0,0)) ((32,96,0) (63,111,15) (0,0,0)) ((32,112,0) (63,127,15) (0,0,0)) ((32,96,16) (63,111,31) (0,0,0)) ((32,112,16) (63,127,31) (0,0,0)) ((64,96,0) (95,111,15) (0,0,0)) ((64,112,0) (95,127,15) (0,0,0)) ((64,96,16) (95,111,31) (0,0,0)) ((64,112,16) (95,127,31) (0,0,0)) ((96,96,0) (127,111,15) (0,0,0)) ((96,112,0) (127,127,15) (0,0,0)) ((96,96,16) (127,111,31) (0,0,0)) ((96,112,16) (127,127,31) (0,0,0)) ((0,0,32) (31,15,47) (0,0,0)) ((0,16,32) (31,31,47) (0,0,0)) ((0,0,48) (31,15,63) (0,0,0)) ((0,16,48) (31,31,63) (0,0,0)) ((32,0,32) (63,15,47) (0,0,0)) ((32,16,32) (63,31,47) (0,0,0)) ((32,0,48) (63,15,63) (0,0,0)) ((32,16,48) (63,31,63) (0,0,0)) ((64,0,32) (95,15,47) (0,0,0)) ((64,16,32) (95,31,47) (0,0,0)) ((64,0,48) (95,15,63) (0,0,0)) ((64,16,48) (95,31,63) (0,0,0)) ((96,0,32) (127,15,47) (0,0,0)) ((96,16,32) (127,31,47) (0,0,0)) ((96,0,48) (127,15,63) (0,0,0)) ((96,16,48) (127,31,63) (0,0,0)) ((0,32,32) (31,47,47) (0,0,0)) ((0,48,32) (31,63,47) (0,0,0)) ((0,32,48) (31,47,63) (0,0,0)) ((0,48,48) (31,63,63) (0,0,0)) ((32,32,32) (63,47,47) (0,0,0)) ((32,48,32) (63,63,47) (0,0,0)) ((32,32,48) (63,47,63) (0,0,0)) ((32,48,48) (63,63,63) (0,0,0)) ((64,32,32) (95,47,47) (0,0,0)) ((64,48,32) (95,63,47) (0,0,0)) ((64,32,48) (95,47,63) (0,0,0)) ((64,48,48) (95,63,63) (0,0,0)) ((96,32,32) (127,47,47) (0,0,0)) ((96,48,32) (127,63,47) (0,0,0)) ((96,32,48) (127,47,63) (0,0,0)) ((96,48,48) (127,63,63) (0,0,0)) ((0,64,32) (31,79,47) (0,0,0)) ((0,80,32) (31,95,47) (0,0,0)) ((0,64,48) (31,79,63) (0,0,0)) ((0,80,48) (31,95,63) (0,0,0)) ((32,64,32) (63,79,47) (0,0,0)) ((32,80,32) (63,95,47) (0,0,0)) ((32,64,48) (63,79,63) (0,0,0)) ((32,80,48) (63,95,63) (0,0,0)) ((64,64,32) (95,79,47) (0,0,0)) ((64,80,32) (95,95,47) (0,0,0)) ((64,64,48) (95,79,63) (0,0,0)) ((64,80,48) (95,95,63) (0,0,0)) ((96,64,32) (127,79,47) (0,0,0)) ((96,80,32) (127,95,47) (0,0,0)) ((96,64,48) (127,79,63) (0,0,0)) ((96,80,48) (127,95,63) (0,0,0)) ((0,96,32) (31,111,47) (0,0,0)) ((0,112,32) (31,127,47) (0,0,0)) ((0,96,48) (31,111,63) (0,0,0)) ((0,112,48) (31,127,63) (0,0,0)) ((32,96,32) (63,111,47) (0,0,0)) ((32,112,32) (63,127,47) (0,0,0)) ((32,96,48) (63,111,63) (0,0,0)) ((32,112,48) (63,127,63) (0,0,0)) ((64,96,32) (95,111,47) (0,0,0)) ((64,112,32) (95,127,47) (0,0,0)) ((64,96,48) (95,111,63) (0,0,0)) ((64,112,48) (95,127,63) (0,0,0)) ((96,96,32) (127,111,47) (0,0,0)) ((96,112,32) (127,127,47) (0,0,0)) ((96,96,48) (127,111,63) (0,0,0)) ((96,112,48) (127,127,63) (0,0,0)) ((0,0,64) (31,15,79) (0,0,0)) ((0,16,64) (31,31,79) (0,0,0)) ((0,0,80) (31,15,95) (0,0,0)) ((0,16,80) (31,31,95) (0,0,0)) ((32,0,64) (63,15,79) (0,0,0)) ((32,16,64) (63,31,79) (0,0,0)) ((32,0,80) (63,15,95) (0,0,0)) ((32,16,80) (63,31,95) (0,0,0)) ((64,0,64) (95,15,79) (0,0,0)) ((64,16,64) (95,31,79) (0,0,0)) ((64,0,80) (95,15,95) (0,0,0)) ((64,16,80) (95,31,95) (0,0,0)) ((96,0,64) (127,15,79) (0,0,0)) ((96,16,64) (127,31,79) (0,0,0)) ((96,0,80) (127,15,95) (0,0,0)) ((96,16,80) (127,31,95) (0,0,0)) ((0,32,64) (31,47,79) (0,0,0)) ((0,48,64) (31,63,79) (0,0,0)) ((0,32,80) (31,47,95) (0,0,0)) ((0,48,80) (31,63,95) (0,0,0)) ((32,32,64) (63,47,79) (0,0,0)) ((32,48,64) (63,63,79) (0,0,0)) ((32,32,80) (63,47,95) (0,0,0)) ((32,48,80) (63,63,95) (0,0,0)) ((64,32,64) (95,47,79) (0,0,0)) ((64,48,64) (95,63,79) (0,0,0)) ((64,32,80) (95,47,95) (0,0,0)) ((64,48,80) (95,63,95) (0,0,0)) ((96,32,64) (127,47,79) (0,0,0)) ((96,48,64) (127,63,79) (0,0,0)) ((96,32,80) (127,47,95) (0,0,0)) ((96,48,80) (127,63,95) (0,0,0)) ((0,64,64) (31,79,79) (0,0,0)) ((0,80,64) (31,95,79) (0,0,0)) ((0,64,80) (31,79,95) (0,0,0)) ((0,80,80) (31,95,95) (0,0,0)) ((32,64,64) (63,79,79) (0,0,0)) ((32,80,64) (63,95,79) (0,0,0)) ((32,64,80) (63,79,95) (0,0,0)) ((32,80,80) (63,95,95) (0,0,0)) ((64,64,64) (95,79,79) (0,0,0)) ((64,80,64) (95,95,79) (0,0,0)) ((64,64,80) (95,79,95) (0,0,0)) ((64,80,80) (95,95,95) (0,0,0)) ((96,64,64) (127,79,79) (0,0,0)) ((96,80,64) (127,95,79) (0,0,0)) ((96,64,80) (127,79,95) (0,0,0)) ((96,80,80) (127,95,95) (0,0,0)) ((0,96,64) (31,111,79) (0,0,0)) ((0,112,64) (31,127,79) (0,0,0)) ((0,96,80) (31,111,95) (0,0,0)) ((0,112,80) (31,127,95) (0,0,0)) ((32,96,64) (63,111,79) (0,0,0)) ((32,112,64) (63,127,79) (0,0,0)) ((32,96,80) (63,111,95) (0,0,0)) ((32,112,80) (63,127,95) (0,0,0)) ((64,96,64) (95,111,79) (0,0,0)) ((64,112,64) (95,127,79) (0,0,0)) ((64,96,80) (95,111,95) (0,0,0)) ((64,112,80) (95,127,95) (0,0,0)) ((96,96,64) (127,111,79) (0,0,0)) ((96,112,64) (127,127,79) (0,0,0)) ((96,96,80) (127,111,95) (0,0,0)) ((96,112,80) (127,127,95) (0,0,0)) ((0,0,96) (31,15,111) (0,0,0)) ((0,16,96) (31,31,111) (0,0,0)) ((0,0,112) (31,15,127) (0,0,0)) ((0,16,112) (31,31,127) (0,0,0)) ((32,0,96) (63,15,111) (0,0,0)) ((32,16,96) (63,31,111) (0,0,0)) ((32,0,112) (63,15,127) (0,0,0)) ((32,16,112) (63,31,127) (0,0,0)) ((64,0,96) (95,15,111) (0,0,0)) ((64,16,96) (95,31,111) (0,0,0)) ((64,0,112) (95,15,127) (0,0,0)) ((64,16,112) (95,31,127) (0,0,0)) ((96,0,96) (127,15,111) (0,0,0)) ((96,16,96) (127,31,111) (0,0,0)) ((96,0,112) (127,15,127) (0,0,0)) ((96,16,112) (127,31,127) (0,0,0)) ((0,32,96) (31,47,111) (0,0,0)) ((0,48,96) (31,63,111) (0,0,0)) ((0,32,112) (31,47,127) (0,0,0)) ((0,48,112) (31,63,127) (0,0,0)) ((32,32,96) (63,47,111) (0,0,0)) ((32,48,96) (63,63,111) (0,0,0)) ((32,32,112) (63,47,127) (0,0,0)) ((32,48,112) (63,63,127) (0,0,0)) ((64,32,96) (95,47,111) (0,0,0)) ((64,48,96) (95,63,111) (0,0,0)) ((64,32,112) (95,47,127) (0,0,0)) ((64,48,112) (95,63,127) (0,0,0)) ((96,32,96) (127,47,111) (0,0,0)) ((96,48,96) (127,63,111) (0,0,0)) ((96,32,112) (127,47,127) (0,0,0)) ((96,48,112) (127,63,127) (0,0,0)) ((0,64,96) (31,79,111) (0,0,0)) ((0,80,96) (31,95,111) (0,0,0)) ((0,64,112) (31,79,127) (0,0,0)) ((0,80,112) (31,95,127) (0,0,0)) ((32,64,96) (63,79,111) (0,0,0)) ((32,80,96) (63,95,111) (0,0,0)) ((32,64,112) (63,79,127) (0,0,0)) ((32,80,112) (63,95,127) (0,0,0)) ((64,64,96) (95,79,111) (0,0,0)) ((64,80,96) (95,95,111) (0,0,0)) ((64,64,112) (95,79,127) (0,0,0)) ((64,80,112) (95,95,127) (0,0,0)) ((96,64,96) (127,79,111) (0,0,0)) ((96,80,96) (127,95,111) (0,0,0)) ((96,64,112) (127,79,127) (0,0,0)) ((96,80,112) (127,95,127) (0,0,0)) ((0,96,96) (31,111,111) (0,0,0)) ((0,112,96) (31,127,111) (0,0,0)) ((0,96,112) (31,111,127) (0,0,0)) ((0,112,112) (31,127,127) (0,0,0)) ((32,96,96) (63,111,111) (0,0,0)) ((32,112,96) (63,127,111) (0,0,0)) ((32,96,112) (63,111,127) (0,0,0)) ((32,112,112) (63,127,127) (0,0,0)) ((64,96,96) (95,111,111) (0,0,0)) ((64,112,96) (95,127,111) (0,0,0)) ((64,96,112) (95,111,127) (0,0,0)) ((64,112,112) (95,127,127) (0,0,0)) ((96,96,96) (127,111,111) (0,0,0)) ((96,112,96) (127,127,111) (0,0,0)) ((96,96,112) (127,111,127) (0,0,0)) ((96,112,112) (127,127,127) (0,0,0)) ((0,0,128) (31,15,143) (0,0,0)) ((0,16,128) (31,31,143) (0,0,0)) ((0,0,144) (31,15,159) (0,0,0)) ((0,16,144) (31,31,159) (0,0,0)) ((32,0,128) (63,15,143) (0,0,0)) ((32,16,128) (63,31,143) (0,0,0)) ((32,0,144) (63,15,159) (0,0,0)) ((32,16,144) (63,31,159) (0,0,0)) ((64,0,128) (95,15,143) (0,0,0)) ((64,16,128) (95,31,143) (0,0,0)) ((64,0,144) (95,15,159) (0,0,0)) ((64,16,144) (95,31,159) (0,0,0)) ((96,0,128) (127,15,143) (0,0,0)) ((96,16,128) (127,31,143) (0,0,0)) ((96,0,144) (127,15,159) (0,0,0)) ((96,16,144) (127,31,159) (0,0,0)) ((0,32,128) (31,47,143) (0,0,0)) ((0,48,128) (31,63,143) (0,0,0)) ((0,32,144) (31,47,159) (0,0,0)) ((0,48,144) (31,63,159) (0,0,0)) ((32,32,128) (63,47,143) (0,0,0)) ((32,48,128) (63,63,143) (0,0,0)) ((32,32,144) (63,47,159) (0,0,0)) ((32,48,144) (63,63,159) (0,0,0)) ((64,32,128) (95,47,143) (0,0,0)) ((64,48,128) (95,63,143) (0,0,0)) ((64,32,144) (95,47,159) (0,0,0)) ((64,48,144) (95,63,159) (0,0,0)) ((96,32,128) (127,47,143) (0,0,0)) ((96,48,128) (127,63,143) (0,0,0)) ((96,32,144) (127,47,159) (0,0,0)) ((96,48,144) (127,63,159) (0,0,0)) ((0,64,128) (31,79,143) (0,0,0)) ((0,80,128) (31,95,143) (0,0,0)) ((0,64,144) (31,79,159) (0,0,0)) ((0,80,144) (31,95,159) (0,0,0)) ((32,64,128) (63,79,143) (0,0,0)) ((32,80,128) (63,95,143) (0,0,0)) ((32,64,144) (63,79,159) (0,0,0)) ((32,80,144) (63,95,159) (0,0,0)) ((64,64,128) (95,79,143) (0,0,0)) ((64,80,128) (95,95,143) (0,0,0)) ((64,64,144) (95,79,159) (0,0,0)) ((64,80,144) (95,95,159) (0,0,0)) ((96,64,128) (127,79,143) (0,0,0)) ((96,80,128) (127,95,143) (0,0,0)) ((96,64,144) (127,79,159) (0,0,0)) ((96,80,144) (127,95,159) (0,0,0)) ((0,96,128) (31,111,143) (0,0,0)) ((0,112,128) (31,127,143) (0,0,0)) ((0,96,144) (31,111,159) (0,0,0)) ((0,112,144) (31,127,159) (0,0,0)) ((32,96,128) (63,111,143) (0,0,0)) ((32,112,128) (63,127,143) (0,0,0)) ((32,96,144) (63,111,159) (0,0,0)) ((32,112,144) (63,127,159) (0,0,0)) ((64,96,128) (95,111,143) (0,0,0)) ((64,112,128) (95,127,143) (0,0,0)) ((64,96,144) (95,111,159) (0,0,0)) ((64,112,144) (95,127,159) (0,0,0)) ((96,96,128) (127,111,143) (0,0,0)) ((96,112,128) (127,127,143) (0,0,0)) ((96,96,144) (127,111,159) (0,0,0)) ((96,112,144) (127,127,159) (0,0,0)) )

Making new level 1 from coarse
Grid summary: 
  Level 0   320 grids  2621440 cells  100 % of domain
            smallest grid: 32 x 16 x 16  biggest grid: 32 x 16 x 16
  Level 1   396 grids  371712 cells  1.772460938 % of domain
            smallest grid: 8 x 8 x 8  biggest grid: 16 x 8 x 8

Shear Stress model: moeng
Heat Flux model: moeng
Reading input NetCDF file: ../baseprecursor_WDir230/bndry_file.nc
NetCDF file read successfully: ../baseprecursor_WDir230/bndry_file.nc
Creating MomentumSource instance: BoussinesqBuoyancy
Creating MomentumSource instance: CoriolisForcing
Creating MomentumSource instance: ABLForcing
Creating MomentumSource instance: ABLMeanBoussinesq
Creating TKESource instance: KsgsM84Src
Creating SamplerBase instance: PlaneSampler
Creating SamplerBase instance: PlaneSampler
Creating SamplerBase instance: PlaneSampler
Initialization successful. Time elapsed = 5.313286789

Begin simulation: 
  Run until 15500 sec. or 40000 timesteps
  Fixed timestepping with dt = 0.5; max. CFL from inputs = 0.95

==============================================================================
Step: 30001 dt: 0.5 Time: 15000 to 15000.5
CFL: 0.522096 (conv: 0.522096 diff: 0 src: 0 )

L-inf norm summary: before predictor step
..............................................................................
Level 0
  velocity                 6.425899231         5.165459232         2.035101395
  gp                     0.06344403791       0.04963193329        0.2981663749
  temperature              296.8952638
  tke                     0.9158076403

Level 1
  velocity                 6.265157118          4.87006667         1.173244851
  gp                      0.0218736049       0.01579539041       0.03031234061
  temperature              288.6611989
  tke                     0.5199197371
..............................................................................


Godunov:
  System                     Iters      Initial residual        Final residual
  ----------------------------------------------------------------------------
  MAC_projection                 6         0.06651500247       3.642567155e-08
  temperature_solve              2        0.001171944206       1.049897946e-09
  tke_solve                      2        0.006771902611       1.017468532e-08
  velocity_solve                 2        0.006402114405       8.243676852e-09

L-inf norm summary: before projection
..............................................................................
Level 0
  velocity                 6.422933458         5.161865628         2.032508443
  gp                     0.06344403791       0.04963193329        0.2981663749
  temperature              296.8952673
  tke                     0.9160502205

Level 1
  velocity                 6.270467944         4.874602623         1.177328553
  gp                      0.0218736049       0.01579539041       0.03031234061
  temperature              288.6637837
  tke                     0.5055999806
..............................................................................

  Nodal_projection               6         0.03870292326       8.783655869e-09

L-inf norm summary: after projection
..............................................................................
Level 0
  velocity                 6.422780815         5.156621981         2.036159052
  gp                      0.2522786914        0.2856931005         0.197868759
  temperature              296.8952673
  tke                     0.9160502205

Level 1
  velocity                  6.26871654           4.8711962         1.182003187
  gp                      0.1419362826        0.1170703562        0.1492131543
  temperature              288.6637837
  tke                     0.5055999806
..............................................................................



L-inf norm summary: end of timestep
..............................................................................
Level 0
  velocity                 6.422780815         5.156621981         2.036159052
  gp                      0.2522786914        0.2856931005         0.197868759
  temperature              296.8952673
  tke                     0.9160502205

Level 1
  velocity                  6.26871654           4.8711962         1.182003187
  gp                      0.1419362826        0.1170703562        0.1492131543
  temperature              288.6637837
  tke                     0.5055999806
..............................................................................

WallClockTime: 30001 Pre: 0.525 Solve: 0.4045 Post: 0.0262 Total: 0.9561
Solve time per cell: 3.46e-05

==============================================================================
Step: 30002 dt: 0.5 Time: 15000.5 to 15001
CFL: 0.534008 (conv: 0.522393 diff: 0 src: 0.0787555 )

L-inf norm summary: before predictor step
..............................................................................
Level 0
  velocity                 6.422780815         5.156621981         2.036159052
  gp                      0.2522786914        0.2856931005         0.197868759
  temperature              296.8952673
  tke                     0.9160502205

Level 1
  velocity                  6.26871654           4.8711962         1.182003187
  gp                      0.1419362826        0.1170703562        0.1492131543
  temperature              288.6637837
  tke                     0.5055999806
..............................................................................


Godunov:
  System                     Iters      Initial residual        Final residual
  ----------------------------------------------------------------------------
  MAC_projection                 5         0.03928060973       1.419795943e-08
  temperature_solve              2        0.001187644541       1.053024334e-09
  tke_solve                      2        0.006698784404       1.035404962e-08
  velocity_solve                 2        0.006495517643       8.503145743e-09

L-inf norm summary: before projection
..............................................................................
Level 0
  velocity                 6.418847028         5.134574927         2.016220284
  gp                      0.2522786914        0.2856931005         0.197868759
  temperature              296.8952642
  tke                     0.9102117924

Level 1
  velocity                 6.272796643         4.872843048         1.186207641
  gp                      0.1419362826        0.1170703562        0.1492131543
  temperature              288.6662113
  tke                     0.4935668097
..............................................................................

  Nodal_projection               6         0.01584159469       4.958238097e-09

L-inf norm summary: after projection
..............................................................................
Level 0
  velocity                 6.418908481         5.135130474         2.016318154
  gp                     0.07277252095        0.1158358239       0.06310763385
  temperature              296.8952642
  tke                     0.9102117924

Level 1
  velocity                 6.272887574         4.870495685         1.181889776
  gp                      0.1018483955       0.09488222426       0.04237172452
  temperature              288.6662113
  tke                     0.4935668097
..............................................................................



L-inf norm summary: end of timestep
..............................................................................
Level 0
  velocity                 6.418908481         5.135130474         2.016318154
  gp                     0.07277252095        0.1158358239       0.06310763385
  temperature              296.8952642
  tke                     0.9102117924

Level 1
  velocity                 6.272887574         4.870495685         1.181889776
  gp                      0.1018483955       0.09488222426       0.04237172452
  temperature              288.6662113
  tke                     0.4935668097
..............................................................................

WallClockTime: 30002 Pre: 0.377 Solve: 0.3491 Post: 0.0261 Total: 0.7525
Solve time per cell: 2.985e-05

==============================================================================
Step: 30003 dt: 0.5 Time: 15001 to 15001.5
CFL: 0.534477 (conv: 0.522741 diff: 0 src: 0.0792021 )

L-inf norm summary: before predictor step
..............................................................................
Level 0
  velocity                 6.418908481         5.135130474         2.016318154
  gp                     0.07277252095        0.1158358239       0.06310763385
  temperature              296.8952642
  tke                     0.9102117924

Level 1
  velocity                 6.272887574         4.870495685         1.181889776
  gp                      0.1018483955       0.09488222426       0.04237172452
  temperature              288.6662113
  tke                     0.4935668097
..............................................................................


Godunov:
  System                     Iters      Initial residual        Final residual
  ----------------------------------------------------------------------------
  MAC_projection                 5         0.03505668866       1.250310069e-08
  temperature_solve              2        0.001190246807       1.068485744e-09
  tke_solve                      2        0.006560431822       1.043640097e-08
  velocity_solve                 2        0.006529219763       8.607597302e-09

L-inf norm summary: before projection
..............................................................................
Level 0
  velocity                   6.4212363         5.140987813         2.003450476
  gp                     0.07277252095        0.1158358239       0.06310763385
  temperature              296.8952606
  tke                     0.8984162909

Level 1
  velocity                 6.267193535         4.871570369         1.180464417
  gp                      0.1018483955       0.09488222426       0.04237172452
  temperature              288.6684807
  tke                     0.4843726772
..............................................................................

  Nodal_projection               6         0.01753080298       3.356152605e-09

L-inf norm summary: after projection
..............................................................................
Level 0
  velocity                 6.421298268         5.142140931         2.003541252
  gp                     0.09795740745        0.1208350758        0.0635021718
  temperature              296.8952606
  tke                     0.8984162909

Level 1
  velocity                 6.269129684         4.871383667         1.179792192
  gp                     0.09379700308       0.08523663707        0.0337418994
  temperature              288.6684807
  tke                     0.4843726772
..............................................................................



L-inf norm summary: end of timestep
..............................................................................
Level 0
  velocity                 6.421298268         5.142140931         2.003541252
  gp                     0.09795740745        0.1208350758        0.0635021718
  temperature              296.8952606
  tke                     0.8984162909

Level 1
  velocity                 6.269129684         4.871383667         1.179792192
  gp                     0.09379700308       0.08523663707        0.0337418994
  temperature              288.6684807
  tke                     0.4843726772
..............................................................................

WallClockTime: 30003 Pre: 0.942 Solve: 0.3556 Post: 0.0285 Total: 1.326
Solve time per cell: 3.042e-05

==============================================================================
Step: 30004 dt: 0.5 Time: 15001.5 to 15002
CFL: 0.530504 (conv: 0.522427 diff: 0 src: 0.0654572 )

L-inf norm summary: before predictor step
..............................................................................
Level 0
  velocity                 6.421298268         5.142140931         2.003541252
  gp                     0.09795740745        0.1208350758        0.0635021718
  temperature              296.8952606
  tke                     0.8984162909

Level 1
  velocity                 6.269129684         4.871383667         1.179792192
  gp                     0.09379700308       0.08523663707        0.0337418994
  temperature              288.6684807
  tke                     0.4843726772
..............................................................................


Godunov:
  System                     Iters      Initial residual        Final residual
  ----------------------------------------------------------------------------
  MAC_projection                 5         0.03671535124        1.33334047e-08
  temperature_solve              2        0.001183690736       1.088153567e-09
  tke_solve                      2        0.006488250684       1.043643616e-08
  velocity_solve                 2        0.006493448102       8.710744126e-09

L-inf norm summary: before projection
..............................................................................
Level 0
  velocity                 6.420574118         5.151934282         2.005336148
  gp                     0.09795740745        0.1208350758        0.0635021718
  temperature              296.8952589
  tke                     0.9141294736

Level 1
  velocity                 6.271827289         4.872448427         1.178401095
  gp                     0.09379700308       0.08523663707        0.0337418994
  temperature              288.6706025
  tke                     0.4783805278
..............................................................................

  Nodal_projection               6         0.01807455492       2.769332694e-09

L-inf norm summary: after projection
..............................................................................
Level 0
  velocity                 6.420666553         5.152392297         2.005411199
  gp                     0.09633340594        0.1195304689       0.06384308877
  temperature              296.8952589
  tke                     0.9141294736

Level 1
  velocity                 6.272657684         4.872702349          1.17861185
  gp                     0.09160275888       0.08186415734       0.03187237567
  temperature              288.6706025
  tke                     0.4783805278
..............................................................................



L-inf norm summary: end of timestep
..............................................................................
Level 0
  velocity                 6.420666553         5.152392297         2.005411199
  gp                     0.09633340594        0.1195304689       0.06384308877
  temperature              296.8952589
  tke                     0.9141294736

Level 1
  velocity                 6.272657684         4.872702349          1.17861185
  gp                     0.09160275888       0.08186415734       0.03187237567
  temperature              288.6706025
  tke                     0.4783805278
..............................................................................

WallClockTime: 30004 Pre: 0.746 Solve: 0.4382 Post: 0.0281 Total: 1.212
Solve time per cell: 3.748e-05

==============================================================================
Step: 30005 dt: 0.5 Time: 15002 to 15002.5
CFL: 0.53015 (conv: 0.522721 diff: 0 src: 0.0627559 )

L-inf norm summary: before predictor step
..............................................................................
Level 0
  velocity                 6.420666553         5.152392297         2.005411199
  gp                     0.09633340594        0.1195304689       0.06384308877
  temperature              296.8952589
  tke                     0.9141294736

Level 1
  velocity                 6.272657684         4.872702349          1.17861185
  gp                     0.09160275888       0.08186415734       0.03187237567
  temperature              288.6706025
  tke                     0.4783805278
..............................................................................


Godunov:
  System                     Iters      Initial residual        Final residual
  ----------------------------------------------------------------------------
  MAC_projection                 5         0.03723279318        1.37076771e-08
  temperature_solve              2        0.001169051013       1.113903636e-09
  tke_solve                      2        0.006763461266       1.037634212e-08
  velocity_solve                 2         0.00638247339       8.757504055e-09

L-inf norm summary: before projection
..............................................................................
Level 0
  velocity                 6.423061309         5.152939308         2.024707753
  gp                     0.09633340594        0.1195304689       0.06384308877
  temperature              296.8952581
  tke                     0.9201744235

Level 1
  velocity                 6.270377381         4.870468056         1.180266567
  gp                     0.09160275888       0.08186415734       0.03187237567
  temperature              288.6725892
  tke                     0.4742236757
..............................................................................

  Nodal_projection               6         0.01818413868       2.706248801e-09

L-inf norm summary: after projection
..............................................................................
Level 0
  velocity                 6.422940521         5.153160468         2.024833299
  gp                     0.09386510323        0.1249898363       0.06383763049
  temperature              296.8952581
  tke                     0.9201744235

Level 1
  velocity                 6.270557493         4.870781571         1.180446983
  gp                     0.09101088262       0.08030146967       0.03124781315
  temperature              288.6725892
  tke                     0.4742236757
..............................................................................



L-inf norm summary: end of timestep
..............................................................................
Level 0
  velocity                 6.422940521         5.153160468         2.024833299
  gp                     0.09386510323        0.1249898363       0.06383763049
  temperature              296.8952581
  tke                     0.9201744235

Level 1
  velocity                 6.270557493         4.870781571         1.180446983
  gp                     0.09101088262       0.08030146967       0.03124781315
  temperature              288.6725892
  tke                     0.4742236757
..............................................................................

WallClockTime: 30005 Pre: 0.227 Solve: 0.3675 Post: 0.0283 Total: 0.6224
Solve time per cell: 3.143e-05

==============================================================================
Step: 30006 dt: 0.5 Time: 15002.5 to 15003
CFL: 0.529791 (conv: 0.522546 diff: 0 src: 0.0619517 )

L-inf norm summary: before predictor step
..............................................................................
Level 0
  velocity                 6.422940521         5.153160468         2.024833299
  gp                     0.09386510323        0.1249898363       0.06383763049
  temperature              296.8952581
  tke                     0.9201744235

Level 1
  velocity                 6.270557493         4.870781571         1.180446983
  gp                     0.09101088262       0.08030146967       0.03124781315
  temperature              288.6725892
  tke                     0.4742236757
..............................................................................


Godunov:
  System                     Iters      Initial residual        Final residual
  ----------------------------------------------------------------------------
  MAC_projection                 5         0.03530952808       1.413853664e-08
  temperature_solve              2        0.001159258559       1.207979494e-09
  tke_solve                      2        0.006911875546       1.026298474e-08
  velocity_solve                 2        0.006307444371       8.723789691e-09

L-inf norm summary: before projection
..............................................................................
Level 0
  velocity                 6.423489812         5.140583605         2.019621613
  gp                     0.09386510323        0.1249898363       0.06383763049
  temperature              296.8952605
  tke                     0.9178058193

Level 1
  velocity                 6.271560429         4.872976213         1.180680487
  gp                     0.09101088262       0.08030146967       0.03124781315
  temperature              288.6744154
  tke                     0.4707419383
..............................................................................

  Nodal_projection               6         0.01833517786       2.800413348e-09

L-inf norm summary: after projection
..............................................................................
Level 0
  velocity                 6.423528204         5.141465123         2.019902865
  gp                     0.08987481744        0.1240918804       0.06254423027
  temperature              296.8952605
  tke                     0.9178058193

Level 1
  velocity                  6.27229082         4.873260848         1.180759049
  gp                     0.09107360875       0.07904735052       0.03083528674
  temperature              288.6744154
  tke                     0.4707419383
..............................................................................



L-inf norm summary: end of timestep
..............................................................................
Level 0
  velocity                 6.423528204         5.141465123         2.019902865
  gp                     0.08987481744        0.1240918804       0.06254423027
  temperature              296.8952605
  tke                     0.9178058193

Level 1
  velocity                  6.27229082         4.873260848         1.180759049
  gp                     0.09107360875       0.07904735052       0.03083528674
  temperature              288.6744154
  tke                     0.4707419383
..............................................................................

WallClockTime: 30006 Pre: 1.27 Solve: 0.35 Post: 0.0283 Total: 1.649
Solve time per cell: 2.993e-05

==============================================================================
Step: 30007 dt: 0.5 Time: 15003 to 15003.5
CFL: 0.529873 (conv: 0.522691 diff: 0 src: 0.0616894 )

L-inf norm summary: before predictor step
..............................................................................
Level 0
  velocity                 6.423528204         5.141465123         2.019902865
  gp                     0.08987481744        0.1240918804       0.06254423027
  temperature              296.8952605
  tke                     0.9178058193

Level 1
  velocity                  6.27229082         4.873260848         1.180759049
  gp                     0.09107360875       0.07904735052       0.03083528674
  temperature              288.6744154
  tke                     0.4707419383
..............................................................................


Godunov:
  System                     Iters      Initial residual        Final residual
  ----------------------------------------------------------------------------
  MAC_projection                 5         0.03739093402       1.473551448e-08
  temperature_solve              2        0.001180877768       1.256239557e-09
  tke_solve                      2        0.006811853066       1.010531586e-08
  velocity_solve                 2        0.006446153174       8.595441692e-09

L-inf norm summary: before projection
..............................................................................
Level 0
  velocity                 6.420282427         5.118765531         2.023875991
  gp                     0.08987481744        0.1240918804       0.06254423027
  temperature              296.8952613
  tke                     0.9227886195

Level 1
  velocity                 6.270551323         4.872562527         1.179254253
  gp                     0.09107360875       0.07904735052       0.03083528674
  temperature              288.6760616
  tke                     0.4672608217
..............................................................................

  Nodal_projection               6         0.01845302237       2.888724903e-09

L-inf norm summary: after projection
..............................................................................
Level 0
  velocity                 6.420522602         5.120102579         2.024044755
  gp                     0.08762338363        0.1226744899       0.06267990131
  temperature              296.8952613
  tke                     0.9227886195

Level 1
  velocity                 6.271371298          4.87282603         1.179302876
  gp                     0.09211105171       0.07768848111       0.03147596058
  temperature              288.6760616
  tke                     0.4672608217
..............................................................................



L-inf norm summary: end of timestep
..............................................................................
Level 0
  velocity                 6.420522602         5.120102579         2.024044755
  gp                     0.08762338363        0.1226744899       0.06267990131
  temperature              296.8952613
  tke                     0.9227886195

Level 1
  velocity                 6.271371298          4.87282603         1.179302876
  gp                     0.09211105171       0.07768848111       0.03147596058
  temperature              288.6760616
  tke                     0.4672608217
..............................................................................

WallClockTime: 30007 Pre: 0.369 Solve: 0.3487 Post: 0.0263 Total: 0.7444
Solve time per cell: 2.983e-05

==============================================================================
Step: 30008 dt: 0.5 Time: 15003.5 to 15004
CFL: 0.52979 (conv: 0.522614 diff: 0 src: 0.0616575 )

L-inf norm summary: before predictor step
..............................................................................
Level 0
  velocity                 6.420522602         5.120102579         2.024044755
  gp                     0.08762338363        0.1226744899       0.06267990131
  temperature              296.8952613
  tke                     0.9227886195

Level 1
  velocity                 6.271371298          4.87282603         1.179302876
  gp                     0.09211105171       0.07768848111       0.03147596058
  temperature              288.6760616
  tke                     0.4672608217
..............................................................................


Godunov:
  System                     Iters      Initial residual        Final residual
  ----------------------------------------------------------------------------
  MAC_projection                 5         0.03740912307       1.443670449e-08
  temperature_solve              2        0.001186682461       1.251748927e-09
  tke_solve                      2        0.006825645898       9.906304665e-09
  velocity_solve                 2        0.006533303235       8.369961613e-09

L-inf norm summary: before projection
..............................................................................
Level 0
  velocity                 6.418366615         5.145988215         2.008827345
  gp                     0.08762338363        0.1226744899       0.06267990131
  temperature              296.8952609
  tke                     0.9153896214

Level 1
  velocity                 6.273691093          4.87214882         1.192108805
  gp                     0.09211105171       0.07768848111       0.03147596058
  temperature              288.6775288
  tke                     0.4645508648
..............................................................................

  Nodal_projection               6         0.01850972446       2.959984317e-09

L-inf norm summary: after projection
..............................................................................
Level 0
  velocity                 6.418260923         5.146675569          2.00903165
  gp                     0.08624944827        0.1229002808       0.06415834262
  temperature              296.8952609
  tke                     0.9153896214

Level 1
  velocity                 6.274313855          4.87237373         1.192092448
  gp                     0.09319777791       0.07647410017       0.03292997633
  temperature              288.6775288
  tke                     0.4645508648
..............................................................................



L-inf norm summary: end of timestep
..............................................................................
Level 0
  velocity                 6.418260923         5.146675569          2.00903165
  gp                     0.08624944827        0.1229002808       0.06415834262
  temperature              296.8952609
  tke                     0.9153896214

Level 1
  velocity                 6.274313855          4.87237373         1.192092448
  gp                     0.09319777791       0.07647410017       0.03292997633
  temperature              288.6775288
  tke                     0.4645508648
..............................................................................

WallClockTime: 30008 Pre: 0.396 Solve: 0.3499 Post: 0.0277 Total: 0.7733
Solve time per cell: 2.993e-05

==============================================================================
Step: 30009 dt: 0.5 Time: 15004 to 15004.5
CFL: 0.530102 (conv: 0.522859 diff: 0 src: 0.0619608 )

L-inf norm summary: before predictor step
..............................................................................
Level 0
  velocity                 6.418260923         5.146675569          2.00903165
  gp                     0.08624944827        0.1229002808       0.06415834262
  temperature              296.8952609
  tke                     0.9153896214

Level 1
  velocity                 6.274313855          4.87237373         1.192092448
  gp                     0.09319777791       0.07647410017       0.03292997633
  temperature              288.6775288
  tke                     0.4645508648
..............................................................................


Godunov:
  System                     Iters      Initial residual        Final residual
  ----------------------------------------------------------------------------
  MAC_projection                 5         0.03553754897       1.411060804e-08
  temperature_solve              2        0.001182688901       1.230603175e-09
  tke_solve                      2        0.006647907884       9.654533561e-09
  velocity_solve                 2        0.006557533223       8.340225399e-09

L-inf norm summary: before projection
..............................................................................
Level 0
  velocity                  6.42082864         5.158902556         1.995696412
  gp                     0.08624944827        0.1229002808       0.06415834262
  temperature              296.8952595
  tke                     0.8964824647

Level 1
  velocity                 6.270840594         4.874459348         1.205336767
  gp                     0.09319777791       0.07647410017       0.03292997633
  temperature              288.6789357
  tke                     0.4620244905
..............................................................................

  Nodal_projection               6         0.01856573631       3.005495994e-09

L-inf norm summary: after projection
..............................................................................
Level 0
  velocity                 6.420779861         5.159416217          1.99566313
  gp                     0.08379768694         0.118009639       0.06407397062
  temperature              296.8952595
  tke                     0.8964824647

Level 1
  velocity                 6.271344473         4.874685266         1.206001704
  gp                     0.09411002014       0.07508432489       0.03412483868
  temperature              288.6789357
  tke                     0.4620244905
..............................................................................



L-inf norm summary: end of timestep
..............................................................................
Level 0
  velocity                 6.420779861         5.159416217          1.99566313
  gp                     0.08379768694         0.118009639       0.06407397062
  temperature              296.8952595
  tke                     0.8964824647

Level 1
  velocity                 6.271344473         4.874685266         1.206001704
  gp                     0.09411002014       0.07508432489       0.03412483868
  temperature              288.6789357
  tke                     0.4620244905
..............................................................................

WallClockTime: 30009 Pre: 0.387 Solve: 0.3518 Post: 0.0319 Total: 0.7702
Solve time per cell: 3.009e-05

==============================================================================
Step: 30010 dt: 0.5 Time: 15004.5 to 15005
CFL: 0.529934 (conv: 0.522612 diff: 0 src: 0.0622892 )

L-inf norm summary: before predictor step
..............................................................................
Level 0
  velocity                 6.420779861         5.159416217          1.99566313
  gp                     0.08379768694         0.118009639       0.06407397062
  temperature              296.8952595
  tke                     0.8964824647

Level 1
  velocity                 6.271344473         4.874685266         1.206001704
  gp                     0.09411002014       0.07508432489       0.03412483868
  temperature              288.6789357
  tke                     0.4620244905
..............................................................................


Godunov:
  System                     Iters      Initial residual        Final residual
  ----------------------------------------------------------------------------
  MAC_projection                 5         0.03727265445        1.38107096e-08
  temperature_solve              2        0.001170801844       1.244529813e-09
  tke_solve                      2        0.006499579478        9.34771599e-09
  velocity_solve                 2        0.006510243593       8.266556328e-09

L-inf norm summary: before projection
..............................................................................
Level 0
  velocity                 6.420135052         5.155137786         1.978764747
  gp                     0.08379768694         0.118009639       0.06407397062
  temperature              296.8952575
  tke                     0.9117641913

Level 1
  velocity                  6.27570361         4.871867476         1.213953871
  gp                     0.09411002014       0.07508432489       0.03412483868
  temperature              288.6802816
  tke                     0.4598228001
..............................................................................

  Nodal_projection               6         0.01816726418       3.030225551e-09

L-inf norm summary: after projection
..............................................................................
Level 0
  velocity                 6.420221692         5.155558573          1.97874363
  gp                     0.07880492005        0.1084405181       0.06257911914
  temperature              296.8952575
  tke                     0.9117641913

Level 1
  velocity                 6.276218803         4.872081922         1.214379562
  gp                     0.09138359151       0.07414083124       0.03575855712
  temperature              288.6802816
  tke                     0.4598228001
..............................................................................



L-inf norm summary: end of timestep
..............................................................................
Level 0
  velocity                 6.420221692         5.155558573          1.97874363
  gp                     0.07880492005        0.1084405181       0.06257911914
  temperature              296.8952575
  tke                     0.9117641913

Level 1
  velocity                 6.276218803         4.872081922         1.214379562
  gp                     0.09138359151       0.07414083124       0.03575855712
  temperature              288.6802816
  tke                     0.4598228001
..............................................................................

WallClockTime: 30010 Pre: 0.718 Solve: 0.3498 Post: 0.0289 Total: 1.096
Solve time per cell: 2.991e-05

==============================================================================
Step: 30011 dt: 0.5 Time: 15005 to 15005.5
CFL: 0.530399 (conv: 0.523018 diff: 0 src: 0.0625659 )

L-inf norm summary: before predictor step
..............................................................................
Level 0
  velocity                 6.420221692         5.155558573          1.97874363
  gp                     0.07880492005        0.1084405181       0.06257911914
  temperature              296.8952575
  tke                     0.9117641913

Level 1
  velocity                 6.276218803         4.872081922         1.214379562
  gp                     0.09138359151       0.07414083124       0.03575855712
  temperature              288.6802816
  tke                     0.4598228001
..............................................................................


Godunov:
  System                     Iters      Initial residual        Final residual
  ----------------------------------------------------------------------------
  MAC_projection                 5         0.03734774631       1.383922655e-08
  temperature_solve              2        0.001151503461       1.263401828e-09
  tke_solve                      2        0.006806404447       9.296051429e-09
  velocity_solve                 2        0.006385612457       8.349421599e-09

L-inf norm summary: before projection
..............................................................................
Level 0
  velocity                  6.41749023         5.135184911         2.002799467
  gp                     0.07880492005        0.1084405181       0.06257911914
  temperature               296.895258
  tke                     0.9170904397

Level 1
  velocity                  6.27448721         4.874593105         1.218007645
  gp                     0.09138359151       0.07414083124       0.03575855712
  temperature              288.6813664
  tke                     0.4569302318
..............................................................................

  Nodal_projection               6         0.01811133903       3.037727742e-09

L-inf norm summary: after projection
..............................................................................
Level 0
  velocity                 6.417474629         5.135423539         2.002831418
  gp                     0.07176104998       0.09623990692       0.06210510136
  temperature               296.895258
  tke                     0.9170904397

Level 1
  velocity                  6.27494146         4.874801833         1.218390338
  gp                     0.08872301571       0.07499364122       0.03710326708
  temperature              288.6813664
  tke                     0.4569302318
..............................................................................



L-inf norm summary: end of timestep
..............................................................................
Level 0
  velocity                 6.417474629         5.135423539         2.002831418
  gp                     0.07176104998       0.09623990692       0.06210510136
  temperature               296.895258
  tke                     0.9170904397

Level 1
  velocity                  6.27494146         4.874801833         1.218390338
  gp                     0.08872301571       0.07499364122       0.03710326708
  temperature              288.6813664
  tke                     0.4569302318
..............................................................................

WallClockTime: 30011 Pre: 0.433 Solve: 0.356 Post: 0.0262 Total: 0.8149
Solve time per cell: 3.045e-05

==============================================================================
Step: 30012 dt: 0.5 Time: 15005.5 to 15006
CFL: 0.530077 (conv: 0.522912 diff: 0 src: 0.061628 )

L-inf norm summary: before predictor step
..............................................................................
Level 0
  velocity                 6.417474629         5.135423539         2.002831418
  gp                     0.07176104998       0.09623990692       0.06210510136
  temperature               296.895258
  tke                     0.9170904397

Level 1
  velocity                  6.27494146         4.874801833         1.218390338
  gp                     0.08872301571       0.07499364122       0.03710326708
  temperature              288.6813664
  tke                     0.4569302318
..............................................................................


Godunov:
  System                     Iters      Initial residual        Final residual
  ----------------------------------------------------------------------------
  MAC_projection                 5         0.03497544513       1.322947718e-08
  temperature_solve              2        0.001165040854       1.322348453e-09
  tke_solve                      2        0.006940273612       9.237563492e-09
  velocity_solve                 2         0.00632733476        8.38603853e-09

L-inf norm summary: before projection
..............................................................................
Level 0
  velocity                 6.417690619         5.127373395         2.001701678
  gp                     0.07176104998       0.09623990692       0.06210510136
  temperature              296.8952589
  tke                      0.922444146

Level 1
  velocity                 6.276696319         4.875057216         1.219054186
  gp                     0.08872301571       0.07499364122       0.03710326708
  temperature              288.6821047
  tke                     0.4534666178
..............................................................................

  Nodal_projection               6         0.01800781614       3.027988249e-09

L-inf norm summary: after projection
..............................................................................
Level 0
  velocity                 6.417838187         5.127993991           2.0018917
  gp                     0.06471310608       0.09291866767       0.06122992007
  temperature              296.8952589
  tke                      0.922444146

Level 1
  velocity                 6.277232643         4.875262964         1.219386099
  gp                     0.08634617169       0.07450287079       0.03845486947
  temperature              288.6821047
  tke                     0.4534666178
..............................................................................



L-inf norm summary: end of timestep
..............................................................................
Level 0
  velocity                 6.417838187         5.127993991           2.0018917
  gp                     0.06471310608       0.09291866767       0.06122992007
  temperature              296.8952589
  tke                      0.922444146

Level 1
  velocity                 6.277232643         4.875262964         1.219386099
  gp                     0.08634617169       0.07450287079       0.03845486947
  temperature              288.6821047
  tke                     0.4534666178
..............................................................................

WallClockTime: 30012 Pre: 0.276 Solve: 0.3533 Post: 0.0275 Total: 0.6572
Solve time per cell: 3.021e-05

==============================================================================
Step: 30013 dt: 0.5 Time: 15006 to 15006.5
CFL: 0.530056 (conv: 0.523103 diff: 0 src: 0.0607081 )

L-inf norm summary: before predictor step
..............................................................................
Level 0
  velocity                 6.417838187         5.127993991           2.0018917
  gp                     0.06471310608       0.09291866767       0.06122992007
  temperature              296.8952589
  tke                      0.922444146

Level 1
  velocity                 6.277232643         4.875262964         1.219386099
  gp                     0.08634617169       0.07450287079       0.03845486947
  temperature              288.6821047
  tke                     0.4534666178
..............................................................................


Godunov:
  System                     Iters      Initial residual        Final residual
  ----------------------------------------------------------------------------
  MAC_projection                 5          0.0364498129       1.273339862e-08
  temperature_solve              2        0.001176603016       1.370096925e-09
  tke_solve                      2         0.00686006579        9.14251308e-09
  velocity_solve                 2        0.006461724015       8.351613623e-09

L-inf norm summary: before projection
..............................................................................
Level 0
  velocity                 6.414297478         5.152456303         2.008686973
  gp                     0.06471310608       0.09291866767       0.06122992007
  temperature              296.8952586
  tke                     0.9264867113

Level 1
  velocity                  6.27472341         4.872812488         1.218304439
  gp                     0.08634617169       0.07450287079       0.03845486947
  temperature              288.6825065
  tke                     0.4506183092
..............................................................................

  Nodal_projection               6         0.01785754152        3.00750572e-09

L-inf norm summary: after projection
..............................................................................
Level 0
  velocity                 6.414608896         5.152997825         2.008760616
  gp                     0.06366031358       0.09140858284       0.06372618634
  temperature              296.8952586
  tke                     0.9264867113

Level 1
  velocity                  6.27509544         4.872989087         1.218622285
  gp                     0.08424082684       0.07381352271        0.0399151627
  temperature              288.6825065
  tke                     0.4506183092
..............................................................................



L-inf norm summary: end of timestep
..............................................................................
Level 0
  velocity                 6.414608896         5.152997825         2.008760616
  gp                     0.06366031358       0.09140858284       0.06372618634
  temperature              296.8952586
  tke                     0.9264867113

Level 1
  velocity                  6.27509544         4.872989087         1.218622285
  gp                     0.08424082684       0.07381352271        0.0399151627
  temperature              288.6825065
  tke                     0.4506183092
..............................................................................

WallClockTime: 30013 Pre: 0.216 Solve: 0.3578 Post: 0.035 Total: 0.6087
Solve time per cell: 3.06e-05

==============================================================================
Step: 30014 dt: 0.5 Time: 15006.5 to 15007
CFL: 0.529693 (conv: 0.522925 diff: 0 src: 0.0598765 )

L-inf norm summary: before predictor step
..............................................................................
Level 0
  velocity                 6.414608896         5.152997825         2.008760616
  gp                     0.06366031358       0.09140858284       0.06372618634
  temperature              296.8952586
  tke                     0.9264867113

Level 1
  velocity                  6.27509544         4.872989087         1.218622285
  gp                     0.08424082684       0.07381352271        0.0399151627
  temperature              288.6825065
  tke                     0.4506183092
..............................................................................


Godunov:
  System                     Iters      Initial residual        Final residual
  ----------------------------------------------------------------------------
  MAC_projection                 5         0.03689124811       1.250806138e-08
  temperature_solve              2        0.001176774679       1.412956863e-09
  tke_solve                      2        0.006917864564       8.998844669e-09
  velocity_solve                 2        0.006540557622       8.238688842e-09

L-inf norm summary: before projection
..............................................................................
Level 0
  velocity                  6.41598067         5.160618276         1.998621411
  gp                     0.06366031358       0.09140858284       0.06372618634
  temperature              296.8952598
  tke                     0.9177275681

Level 1
  velocity                 6.279323084         4.876431167          1.21662664
  gp                     0.08424082684       0.07381352271        0.0399151627
  temperature              288.6825786
  tke                     0.4475958157
..............................................................................

  Nodal_projection               6         0.01770401451       2.980240662e-09

L-inf norm summary: after projection
..............................................................................
Level 0
  velocity                 6.415861658         5.161051867         1.998776778
  gp                     0.06395195021       0.08805840399       0.06470047898
  temperature              296.8952598
  tke                     0.9177275681

Level 1
  velocity                   6.2797802         4.876616638         1.216740971
  gp                     0.08229932039       0.07435741868       0.04046937349
  temperature              288.6825786
  tke                     0.4475958157
..............................................................................



L-inf norm summary: end of timestep
..............................................................................
Level 0
  velocity                 6.415861658         5.161051867         1.998776778
  gp                     0.06395195021       0.08805840399       0.06470047898
  temperature              296.8952598
  tke                     0.9177275681

Level 1
  velocity                   6.2797802         4.876616638         1.216740971
  gp                     0.08229932039       0.07435741868       0.04046937349
  temperature              288.6825786
  tke                     0.4475958157
..............................................................................

WallClockTime: 30014 Pre: 0.577 Solve: 0.3828 Post: 0.0274 Total: 0.9873
Solve time per cell: 3.274e-05

==============================================================================
Step: 30015 dt: 0.5 Time: 15007 to 15007.5
CFL: 0.529915 (conv: 0.523315 diff: 0 src: 0.0591382 )

L-inf norm summary: before predictor step
..............................................................................
Level 0
  velocity                 6.415861658         5.161051867         1.998776778
  gp                     0.06395195021       0.08805840399       0.06470047898
  temperature              296.8952598
  tke                     0.9177275681

Level 1
  velocity                   6.2797802         4.876616638         1.216740971
  gp                     0.08229932039       0.07435741868       0.04046937349
  temperature              288.6825786
  tke                     0.4475958157
..............................................................................


Godunov:
  System                     Iters      Initial residual        Final residual
  ----------------------------------------------------------------------------
  MAC_projection                 5         0.04113040799       1.282185183e-08
  temperature_solve              2        0.001169223327       1.445300768e-09
  tke_solve                      2        0.006705621991       8.796567585e-09
  velocity_solve                 2        0.006553360107       8.038911758e-09

L-inf norm summary: before projection
..............................................................................
Level 0
  velocity                 6.418947591         5.151685757         1.984128545
  gp                     0.06395195021       0.08805840399       0.06470047898
  temperature              296.8952595
  tke                     0.8948600368

Level 1
  velocity                 6.277151136         4.875501599         1.213756391
  gp                     0.08229932039       0.07435741868       0.04046937349
  temperature              288.6823849
  tke                     0.4444457548
..............................................................................

  Nodal_projection               6         0.01750042485       2.947879699e-09

L-inf norm summary: after projection
..............................................................................
Level 0
  velocity                 6.418924693         5.152042019         1.984001065
  gp                     0.06251381979       0.08349791397        0.0642194992
  temperature              296.8952595
  tke                     0.8948600368

Level 1
  velocity                 6.277575123         4.875690805         1.213666626
  gp                     0.08058999044       0.07357314234       0.04054115333
  temperature              288.6823849
  tke                     0.4444457548
..............................................................................



L-inf norm summary: end of timestep
..............................................................................
Level 0
  velocity                 6.418924693         5.152042019         1.984001065
  gp                     0.06251381979       0.08349791397        0.0642194992
  temperature              296.8952595
  tke                     0.8948600368

Level 1
  velocity                 6.277575123         4.875690805         1.213666626
  gp                     0.08058999044       0.07357314234       0.04054115333
  temperature              288.6823849
  tke                     0.4444457548
..............................................................................

WallClockTime: 30015 Pre: 0.231 Solve: 0.4355 Post: 0.0308 Total: 0.6976
Solve time per cell: 3.725e-05

==============================================================================
Step: 30016 dt: 0.5 Time: 15007.5 to 15008
CFL: 0.529583 (conv: 0.523131 diff: 0 src: 0.0584549 )

L-inf norm summary: before predictor step
..............................................................................
Level 0
  velocity                 6.418924693         5.152042019         1.984001065
  gp                     0.06251381979       0.08349791397        0.0642194992
  temperature              296.8952595
  tke                     0.8948600368

Level 1
  velocity                 6.277575123         4.875690805         1.213666626
  gp                     0.08058999044       0.07357314234       0.04054115333
  temperature              288.6823849
  tke                     0.4444457548
..............................................................................


Godunov:
  System                     Iters      Initial residual        Final residual
  ----------------------------------------------------------------------------
  MAC_projection                 5         0.04522654671       1.398598445e-08
  temperature_solve              2        0.001154490472       1.454850462e-09
  tke_solve                      2        0.006500713265       8.539256913e-09
  velocity_solve                 2          0.0064944765       7.752290365e-09

L-inf norm summary: before projection
..............................................................................
Level 0
  velocity                 6.418604805          5.13782514         1.972678822
  gp                     0.06251381979       0.08349791397        0.0642194992
  temperature              296.8952579
  tke                     0.9058691753

Level 1
  velocity                 6.278501756         4.875495011         1.212162647
  gp                     0.08058999044       0.07357314234       0.04054115333
  temperature              288.6826656
  tke                     0.4404155355
..............................................................................

  Nodal_projection               6         0.01741614616       2.918141449e-09

L-inf norm summary: after projection
..............................................................................
Level 0
  velocity                 6.418726481         5.138723116          1.97260838
  gp                     0.05982425836       0.07763550364       0.06220726598
  temperature              296.8952579
  tke                     0.9058691753

Level 1
  velocity                  6.27896725         4.875659353         1.212237707
  gp                     0.07962747137       0.07314206675       0.04343255865
  temperature              288.6826656
  tke                     0.4404155355
..............................................................................



L-inf norm summary: end of timestep
..............................................................................
Level 0
  velocity                 6.418726481         5.138723116          1.97260838
  gp                     0.05982425836       0.07763550364       0.06220726598
  temperature              296.8952579
  tke                     0.9058691753

Level 1
  velocity                  6.27896725         4.875659353         1.212237707
  gp                     0.07962747137       0.07314206675       0.04343255865
  temperature              288.6826656
  tke                     0.4404155355
..............................................................................

WallClockTime: 30016 Pre: 0.362 Solve: 0.4178 Post: 0.0305 Total: 0.8102
Solve time per cell: 3.573e-05

==============================================================================
Step: 30017 dt: 0.5 Time: 15008 to 15008.5
CFL: 0.529567 (conv: 0.523247 diff: 0 src: 0.0578517 )

L-inf norm summary: before predictor step
..............................................................................
Level 0
  velocity                 6.418726481         5.138723116          1.97260838
  gp                     0.05982425836       0.07763550364       0.06220726598
  temperature              296.8952579
  tke                     0.9058691753

Level 1
  velocity                  6.27896725         4.875659353         1.212237707
  gp                     0.07962747137       0.07314206675       0.04343255865
  temperature              288.6826656
  tke                     0.4404155355
..............................................................................


Godunov:
  System                     Iters      Initial residual        Final residual
  ----------------------------------------------------------------------------
  MAC_projection                 5         0.04902999292       1.616705355e-08
  temperature_solve              2        0.001158538387       1.481851086e-09
  tke_solve                      2        0.006804380082       8.223344616e-09
  velocity_solve                 2        0.006361363699       7.882567821e-09

L-inf norm summary: before projection
..............................................................................
Level 0
  velocity                 6.415095363         5.130775069          1.97769431
  gp                     0.05982425836       0.07763550364       0.06220726598
  temperature              296.8952553
  tke                     0.9105840512

Level 1
  velocity                 6.278492982         4.877264818         1.213057865
  gp                     0.07962747137       0.07314206675       0.04343255865
  temperature              288.6826311
  tke                     0.4364024902
..............................................................................

  Nodal_projection               6         0.01750876212       3.149533758e-09

L-inf norm summary: after projection
..............................................................................
Level 0
  velocity                 6.415414362         5.131452655         1.977648461
  gp                     0.06091207584       0.07206455439       0.06018197428
  temperature              296.8952553
  tke                     0.9105840512

Level 1
  velocity                 6.278820185         4.877442878          1.21315737
  gp                     0.08516882485       0.07284016993       0.04773012457
  temperature              288.6826311
  tke                     0.4364024902
..............................................................................



L-inf norm summary: end of timestep
..............................................................................
Level 0
  velocity                 6.415414362         5.131452655         1.977648461
  gp                     0.06091207584       0.07206455439       0.06018197428
  temperature              296.8952553
  tke                     0.9105840512

Level 1
  velocity                 6.278820185         4.877442878          1.21315737
  gp                     0.08516882485       0.07284016993       0.04773012457
  temperature              288.6826311
  tke                     0.4364024902
..............................................................................

WallClockTime: 30017 Pre: 0.215 Solve: 0.36 Post: 0.0311 Total: 0.6063
Solve time per cell: 3.079e-05

==============================================================================
Step: 30018 dt: 0.5 Time: 15008.5 to 15009
CFL: 0.529479 (conv: 0.523235 diff: 0 src: 0.0574965 )

L-inf norm summary: before predictor step
..............................................................................
Level 0
  velocity                 6.415414362         5.131452655         1.977648461
  gp                     0.06091207584       0.07206455439       0.06018197428
  temperature              296.8952553
  tke                     0.9105840512

Level 1
  velocity                 6.278820185         4.877442878          1.21315737
  gp                     0.08516882485       0.07284016993       0.04773012457
  temperature              288.6826311
  tke                     0.4364024902
..............................................................................


Godunov:
  System                     Iters      Initial residual        Final residual
  ----------------------------------------------------------------------------
  MAC_projection                 5           0.053391736       1.702630533e-08
  temperature_solve              2        0.001164175015       1.499927293e-09
  tke_solve                      2        0.006926146556       7.856471584e-09
  velocity_solve                 2         0.00631362623       8.885283717e-09

L-inf norm summary: before projection
..............................................................................
Level 0
  velocity                 6.408526695         5.152189867         1.981113483
  gp                     0.06091207584       0.07206455439       0.06018197428
  temperature              296.8952582
  tke                      0.923745621

Level 1
  velocity                 6.281954521         4.876389218         1.212193182
  gp                     0.08516882485       0.07284016993       0.04773012457
  temperature              288.6830784
  tke                     0.4325958735
..............................................................................

  Nodal_projection               6         0.01843393571       3.409915861e-09

L-inf norm summary: after projection
..............................................................................
Level 0
  velocity                 6.409020898         5.152730678         1.981217971
  gp                     0.06255162153       0.06714750049       0.06236205911
  temperature              296.8952582
  tke                      0.923745621

Level 1
  velocity                 6.282359593         4.876575475          1.21239143
  gp                     0.09150378599       0.07215852514       0.05263709564
  temperature              288.6830784
  tke                     0.4325958735
..............................................................................



L-inf norm summary: end of timestep
..............................................................................
Level 0
  velocity                 6.409020898         5.152730678         1.981217971
  gp                     0.06255162153       0.06714750049       0.06236205911
  temperature              296.8952582
  tke                      0.923745621

Level 1
  velocity                 6.282359593         4.876575475          1.21239143
  gp                     0.09150378599       0.07215852514       0.05263709564
  temperature              288.6830784
  tke                     0.4325958735
..............................................................................

WallClockTime: 30018 Pre: 0.801 Solve: 0.3546 Post: 0.0273 Total: 1.183
Solve time per cell: 3.033e-05

==============================================================================
Step: 30019 dt: 0.5 Time: 15009 to 15009.5
CFL: 0.530203 (conv: 0.52353 diff: 0 src: 0.0594796 )

L-inf norm summary: before predictor step
..............................................................................
Level 0
  velocity                 6.409020898         5.152730678         1.981217971
  gp                     0.06255162153       0.06714750049       0.06236205911
  temperature              296.8952582
  tke                      0.923745621

Level 1
  velocity                 6.282359593         4.876575475          1.21239143
  gp                     0.09150378599       0.07215852514       0.05263709564
  temperature              288.6830784
  tke                     0.4325958735
..............................................................................


Godunov:
  System                     Iters      Initial residual        Final residual
  ----------------------------------------------------------------------------
  MAC_projection                 5         0.05639242898       1.657114689e-08
  temperature_solve              2        0.001166923935       1.491741841e-09
  tke_solve                      2        0.006930615141       7.452556405e-09
  velocity_solve                 2        0.006441918477       9.907072274e-09

[...]
  temperature              296.8952538
  tke                     0.8824536126

Level 1
  velocity                 6.310941128         4.915605559         1.380090585
  gp                       0.113353254       0.06469647782       0.04581147983
  temperature              288.7009894
  tke                     0.5707913914
..............................................................................

WallClockTime: 30056 Pre: 1.12 Solve: 0.353 Post: 0.0312 Total: 1.509
Solve time per cell: 3.019e-05

==============================================================================
Step: 30057 dt: 0.5 Time: 15028 to 15028.5
CFL: 0.534723 (conv: 0.525912 diff: 0 src: 0.0686392 )

L-inf norm summary: before predictor step
..............................................................................
Level 0
  velocity                  6.39358926          5.16692708         1.974206806
  gp                     0.06708633208       0.09333078122       0.05624138056
  temperature              296.8952538
  tke                     0.8824536126

Level 1
  velocity                 6.310941128         4.915605559         1.380090585
  gp                       0.113353254       0.06469647782       0.04581147983
  temperature              288.7009894
  tke                     0.5707913914
..............................................................................


Godunov:
  System                     Iters      Initial residual        Final residual
  ----------------------------------------------------------------------------
  MAC_projection                 5         0.03804772582       1.523988048e-08
  temperature_solve              2        0.001210471341       3.552372618e-09
  tke_solve                      2        0.006416615849       1.649024417e-08
  velocity_solve                 2        0.006609889751       1.315172948e-08

L-inf norm summary: before projection
..............................................................................
Level 0
  velocity                  6.39694499         5.174175077         1.961960773
  gp                     0.06708633208       0.09333078122       0.05624138056
  temperature              296.8952546
  tke                     0.8822201947

Level 1
  velocity                 6.310672874         4.914931748         1.420775703
  gp                       0.113353254       0.06469647782       0.04581147983
  temperature              288.7012647
  tke                     0.5648581715
..............................................................................

  Nodal_projection               6         0.02475361869       6.452780771e-09

L-inf norm summary: after projection
..............................................................................
Level 0
  velocity                  6.39713286         5.174632453         1.961696337
  gp                     0.06776709114       0.09640631154        0.0571701599
  temperature              296.8952546
  tke                     0.8822201947

Level 1
  velocity                 6.311109672         4.915093565         1.421052966
  gp                      0.1133792493       0.06525831639       0.04589298173
  temperature              288.7012647
  tke                     0.5648581715
..............................................................................



L-inf norm summary: end of timestep
..............................................................................
Level 0
  velocity                  6.39713286         5.174632453         1.961696337
  gp                     0.06776709114       0.09640631154        0.0571701599
  temperature              296.8952546
  tke                     0.8822201947

Level 1
  velocity                 6.311109672         4.915093565         1.421052966
  gp                      0.1133792493       0.06525831639       0.04589298173
  temperature              288.7012647
  tke                     0.5648581715
..............................................................................

WallClockTime: 30057 Pre: 0.246 Solve: 0.3627 Post: 0.0299 Total: 0.6385
Solve time per cell: 3.102e-05

==============================================================================
Step: 30058 dt: 0.5 Time: 15028.5 to 15029
CFL: 0.534764 (conv: 0.525926 diff: 0 src: 0.0687468 )

L-inf norm summary: before predictor step
..............................................................................
Level 0
  velocity                  6.39713286         5.174632453         1.961696337
  gp                     0.06776709114       0.09640631154        0.0571701599
  temperature              296.8952546
  tke                     0.8822201947

Level 1
  velocity                 6.311109672         4.915093565         1.421052966
  gp                      0.1133792493       0.06525831639       0.04589298173
  temperature              288.7012647
  tke                     0.5648581715
..............................................................................


Godunov:
  System                     Iters      Initial residual        Final residual
  ----------------------------------------------------------------------------
  MAC_projection                 5         0.03766103037       1.479502089e-08
  temperature_solve              2        0.001220257424        3.53827545e-09
  tke_solve                      2         0.00641710363       1.574642561e-08
  velocity_solve                 2        0.006405176859       1.270690841e-08

L-inf norm summary: before projection
..............................................................................
Level 0
  velocity                 6.400919911         5.177811242          1.97568684
  gp                     0.06776709114       0.09640631154        0.0571701599
  temperature              296.8952537
  tke                     0.8695749759

Level 1
  velocity                 6.313378672         4.915005848         1.453981287
  gp                      0.1133792493       0.06525831639       0.04589298173
  temperature              288.7017583
  tke                     0.5588279368
..............................................................................

  Nodal_projection               6         0.02468681933       6.391320988e-09

L-inf norm summary: after projection
..............................................................................
Level 0
  velocity                 6.400760021         5.178532838         1.975360659
  gp                     0.06921254016       0.09783567313       0.05797640434
  temperature              296.8952537
  tke                     0.8695749759

Level 1
  velocity                 6.313934655         4.915154016         1.454569611
  gp                      0.1132809787        0.0655856755       0.04592405081
  temperature              288.7017583
  tke                     0.5588279368
..............................................................................



L-inf norm summary: end of timestep
..............................................................................
Level 0
  velocity                 6.400760021         5.178532838         1.975360659
  gp                     0.06921254016       0.09783567313       0.05797640434
  temperature              296.8952537
  tke                     0.8695749759

Level 1
  velocity                 6.313934655         4.915154016         1.454569611
  gp                      0.1132809787        0.0655856755       0.04592405081
  temperature              288.7017583
  tke                     0.5588279368
..............................................................................

WallClockTime: 30058 Pre: 0.373 Solve: 0.4165 Post: 0.0301 Total: 0.8197
Solve time per cell: 3.563e-05

==============================================================================
Step: 30059 dt: 0.5 Time: 15029 to 15029.5
CFL: 0.534999 (conv: 0.526161 diff: 0 src: 0.0687636 )

L-inf norm summary: before predictor step
..............................................................................
Level 0
  velocity                 6.400760021         5.178532838         1.975360659
  gp                     0.06921254016       0.09783567313       0.05797640434
  temperature              296.8952537
  tke                     0.8695749759

Level 1
  velocity                 6.313934655         4.915154016         1.454569611
  gp                      0.1132809787        0.0655856755       0.04592405081
  temperature              288.7017583
  tke                     0.5588279368
..............................................................................


Godunov:
  System                     Iters      Initial residual        Final residual
  ----------------------------------------------------------------------------
  MAC_projection                 5         0.03728311808       1.398253243e-08
  temperature_solve              2        0.001226601267       3.496779755e-09
  tke_solve                      2        0.006146505425       1.490717183e-08
  velocity_solve                 2        0.006193772757       1.215774859e-08

L-inf norm summary: before projection
..............................................................................
Level 0
  velocity                 6.400684224          5.17674152         1.986183923
  gp                     0.06921254016       0.09783567313       0.05797640434
  temperature              296.8952548
  tke                      0.843515101

Level 1
  velocity                 6.312322381         4.918641869         1.484045618
  gp                      0.1132809787        0.0655856755       0.04592405081
  temperature               288.702779
  tke                     0.5521465565
..............................................................................

  Nodal_projection               6         0.02459967795       6.197738686e-09

L-inf norm summary: after projection
..............................................................................
Level 0
  velocity                 6.400635304         5.177730662         1.985832707
  gp                     0.06835081348       0.09569198884       0.05829189934
  temperature              296.8952548
  tke                      0.843515101

Level 1
  velocity                 6.312880643         4.918699007         1.484739942
  gp                      0.1129363899       0.06571485701       0.04590193712
  temperature               288.702779
  tke                     0.5521465565
..............................................................................



L-inf norm summary: end of timestep
..............................................................................
Level 0
  velocity                 6.400635304         5.177730662         1.985832707
  gp                     0.06835081348       0.09569198884       0.05829189934
  temperature              296.8952548
  tke                      0.843515101

Level 1
  velocity                 6.312880643         4.918699007         1.484739942
  gp                      0.1129363899       0.06571485701       0.04590193712
  temperature               288.702779
  tke                     0.5521465565
..............................................................................

WallClockTime: 30059 Pre: 0.244 Solve: 0.4145 Post: 0.0297 Total: 0.6879
Solve time per cell: 3.545e-05

==============================================================================
Step: 30060 dt: 0.5 Time: 15029.5 to 15030
CFL: 0.534908 (conv: 0.526073 diff: 0 src: 0.068745 )

L-inf norm summary: before predictor step
..............................................................................
Level 0
  velocity                 6.400635304         5.177730662         1.985832707
  gp                     0.06835081348       0.09569198884       0.05829189934
  temperature              296.8952548
  tke                      0.843515101

Level 1
  velocity                 6.312880643         4.918699007         1.484739942
  gp                      0.1129363899       0.06571485701       0.04590193712
  temperature               288.702779
  tke                     0.5521465565
..............................................................................


Godunov:
  System                     Iters      Initial residual        Final residual
  ----------------------------------------------------------------------------
  MAC_projection                 5         0.03681861471       1.299380576e-08
  temperature_solve              2        0.001234390115       3.425270734e-09
  tke_solve                      2        0.005996653831       1.397379867e-08
  velocity_solve                 2        0.006208488934       1.152479001e-08

L-inf norm summary: before projection
..............................................................................
Level 0
  velocity                 6.394020449         5.170258792         1.992293962
  gp                     0.06835081348       0.09569198884       0.05829189934
  temperature              296.8952548
  tke                      0.851297501

Level 1
  velocity                 6.314002456         4.931273956         1.525327882
  gp                      0.1129363899       0.06571485701       0.04590193712
  temperature              288.7031105
  tke                     0.5442966218
..............................................................................

  Nodal_projection               6         0.02443673532       6.006725103e-09

L-inf norm summary: after projection
..............................................................................
Level 0
  velocity                  6.39406836         5.171360827         1.991924321
  gp                     0.06874064957       0.09489678405       0.05684077018
  temperature              296.8952548
  tke                      0.851297501

Level 1
  velocity                 6.314416131         4.930995738         1.525556039
  gp                      0.1122991416       0.06550302465        0.0458242178
  temperature              288.7031105
  tke                     0.5442966218
..............................................................................



L-inf norm summary: end of timestep
..............................................................................
Level 0
  velocity                  6.39406836         5.171360827         1.991924321
  gp                     0.06874064957       0.09489678405       0.05684077018
  temperature              296.8952548
  tke                      0.851297501

Level 1
  velocity                 6.314416131         4.930995738         1.525556039
  gp                      0.1122991416       0.06550302465        0.0458242178
  temperature              288.7031105
  tke                     0.5442966218
..............................................................................

WallClockTime: 30060 Pre: 0.21 Solve: 0.3716 Post: 0.0295 Total: 0.6114
Solve time per cell: 3.178e-05

==============================================================================
Step: 30061 dt: 0.5 Time: 15030 to 15030.5
CFL: 0.535011 (conv: 0.526201 diff: 0 src: 0.0686534 )

L-inf norm summary: before predictor step
..............................................................................
Level 0
  velocity                  6.39406836         5.171360827         1.991924321
  gp                     0.06874064957       0.09489678405       0.05684077018
  temperature              296.8952548
  tke                      0.851297501

Level 1
  velocity                 6.314416131         4.930995738         1.525556039
  gp                      0.1122991416       0.06550302465        0.0458242178
  temperature              288.7031105
  tke                     0.5442966218
..............................................................................


Godunov:
  System                     Iters      Initial residual        Final residual
  ----------------------------------------------------------------------------
  MAC_projection                 5         0.03629391524        1.18285671e-08
  temperature_solve              2        0.001273203671       3.323350484e-09
  tke_solve                      2        0.006260859919       1.294949348e-08
  velocity_solve                 2        0.006124750265       1.081460166e-08

L-inf norm summary: before projection
..............................................................................
Level 0
  velocity                 6.393513398         5.161441332         1.992824142
  gp                     0.06874064957       0.09489678405       0.05684077018
  temperature               296.895253
  tke                      0.862727229

Level 1
  velocity                 6.315076093         4.943926952         1.564256701
  gp                      0.1122991416       0.06550302465        0.0458242178
  temperature              288.7033948
  tke                     0.5352012055
..............................................................................

  Nodal_projection               6         0.02417606406       5.798192328e-09

L-inf norm summary: after projection
..............................................................................
Level 0
  velocity                 6.393711892         5.161466885         1.992433812
  gp                     0.06813970952       0.09489242176       0.05542154243
  temperature               296.895253
  tke                      0.862727229

Level 1
  velocity                 6.315637219         4.943017363          1.56436272
  gp                      0.1113125467       0.06541276214       0.04565753967
  temperature              288.7033948
  tke                     0.5352012055
..............................................................................



L-inf norm summary: end of timestep
..............................................................................
Level 0
  velocity                 6.393711892         5.161466885         1.992433812
  gp                     0.06813970952       0.09489242176       0.05542154243
  temperature               296.895253
  tke                      0.862727229

Level 1
  velocity                 6.315637219         4.943017363          1.56436272
  gp                      0.1113125467       0.06541276214       0.04565753967
  temperature              288.7033948
  tke                     0.5352012055
..............................................................................

WallClockTime: 30061 Pre: 0.26 Solve: 0.4026 Post: 0.0293 Total: 0.692
Solve time per cell: 3.443e-05

==============================================================================
Step: 30062 dt: 0.5 Time: 15030.5 to 15031
CFL: 0.535066 (conv: 0.526303 diff: 0 src: 0.0684733 )

L-inf norm summary: before predictor step
..............................................................................
Level 0
  velocity                 6.393711892         5.161466885         1.992433812
  gp                     0.06813970952       0.09489242176       0.05542154243
  temperature               296.895253
  tke                      0.862727229

Level 1
  velocity                 6.315637219         4.943017363          1.56436272
  gp                      0.1113125467       0.06541276214       0.04565753967
  temperature              288.7033948
  tke                     0.5352012055
..............................................................................


Godunov:
  System                     Iters      Initial residual        Final residual
  ----------------------------------------------------------------------------
  MAC_projection                 5         0.03573434814       1.021392562e-08
  temperature_solve              2        0.001263060354        3.18993898e-09
  tke_solve                      2         0.00630824034       1.184737364e-08
  velocity_solve                 2        0.005952474226       1.021193086e-08

L-inf norm summary: before projection
..............................................................................
